data_C720H576N24_2018-02-15_10:40:58
#******************************************
#
# CIF file created by Zeo++
# Zeo++ is an open source package to
# analyze microporous materials
#
#*******************************************

_cell_length_a		50.4347   
_cell_length_b		50.4347   
_cell_length_c		29.1736   
_cell_angle_alpha		90   
_cell_angle_beta		90   
_cell_angle_gamma		120   

_symmetry_space_group_name_H-M		'P1'
_symmetry_Int_Tables_number		1
_symmetry_cell_setting		Monoclinic

loop_
_symmetry_equiv_pos_as_xyz
'+x,+y,+z'

loop_
_atom_site_label
_atom_site_type_symbol
_atom_site_fract_x
_atom_site_fract_y
_atom_site_fract_z
1	N	0.18757	0.347344	0.014162
2	C	0.204052	0.330658	0.013816
3	C	0.204076	0.380469	0.015195
4	C	0.154472	0.330956	0.01395
5	C	0.137341	0.31905	0.054736
6	C	0.10492	0.302369	0.054479
7	C	0.087862	0.297802	0.013686
8	C	0.105098	0.31036	0.973039
9	C	0.137527	0.326011	0.973043
10	C	0.225936	0.335622	0.979497
11	C	0.242659	0.319877	0.979706
12	C	0.237638	0.297504	0.013364
13	C	0.215325	0.292197	0.047161
14	C	0.199516	0.308782	0.04794
15	C	0.22419	0.396987	0.051577
16	C	0.241067	0.429436	0.051978
17	C	0.238138	0.447104	0.016588
18	C	0.217789	0.43051	0.980392
19	C	0.201593	0.398102	0.979405
20	H	0.258504	0.324655	0.954427
21	H	0.230192	0.351321	0.954218
22	H	0.184143	0.304327	0.07369
23	H	0.210326	0.275969	0.071895
24	H	0.148535	0.322368	0.085266
25	H	0.093711	0.293584	0.084796
26	H	0.227052	0.38526	0.077928
27	H	0.255844	0.44022	0.078566
28	H	0.214919	0.442081	0.953779
29	H	0.187779	0.387364	0.951955
30	H	0.148858	0.333955	0.942632
31	H	0.094011	0.30804	0.942635
32	N	0.354321	0.180748	0.013586
33	C	0.337799	0.197158	0.013508
34	C	0.337759	0.147802	0.014182
35	C	0.387299	0.197306	0.013391
36	C	0.404338	0.196918	0.975165
37	C	0.436759	0.213155	0.975292
38	C	0.454091	0.230859	0.01349
39	C	0.436651	0.23115	0.051603
40	C	0.404224	0.214833	0.051615
41	C	0.325797	0.202213	0.05424
42	C	0.309831	0.218668	0.054021
43	C	0.30475	0.230809	0.013103
44	C	0.316861	0.225433	0.972388
45	C	0.333069	0.209206	0.972577
46	C	0.327726	0.131139	0.055592
47	C	0.31156	0.098702	0.056009
48	C	0.304497	0.080996	0.015167
49	C	0.314676	0.098161	0.973804
50	C	0.33077	0.13058	0.973273
51	H	0.301292	0.221152	0.08452
52	H	0.328785	0.193937	0.084645
53	H	0.341493	0.206128	0.942371
54	H	0.31458	0.233984	0.941772
55	H	0.393091	0.184847	0.946519
56	H	0.447683	0.212416	0.946186
57	H	0.332472	0.142713	0.08603
58	H	0.305609	0.088066	0.087221
59	H	0.309853	0.087128	0.942906
60	H	0.33728	0.14172	0.942467
61	H	0.392841	0.215631	0.080143
62	H	0.447501	0.242867	0.080713
63	C	0.288137	0.247611	0.346289
64	C	0.290766	0.267596	0.048977
65	C	0.274697	0.284136	0.049701
66	C	0.254198	0.280711	0.01322
67	C	0.251142	0.260533	0.309809
68	H	0.305592	0.270838	0.075181
69	C	0.268186	0.244978	0.310209
70	H	0.265015	0.230227	0.283877
71	C	0.280764	0.305678	0.08861
72	H	0.299031	0.30791	0.111251
73	H	0.260224	0.297657	0.109492
74	H	0.287584	0.328469	0.075434
75	C	0.229905	0.253521	0.270211
76	H	0.215088	0.263379	0.273236
77	H	0.214956	0.228771	0.267062
78	H	0.2432	0.26215	0.238675
79	C	0.287992	0.047507	0.348966
80	C	0.265233	0.030132	0.048658
81	C	0.248934	0.497521	0.049825
82	C	0.255246	0.480423	0.016783
83	C	0.278149	0.497462	0.316371
84	H	0.259689	0.041655	0.072119
85	C	0.293634	0.030053	0.31642
86	H	0.310421	0.041496	0.292476
87	C	0.224654	0.481948	0.085338
88	H	0.221092	0.497945	0.106064
89	H	0.230893	0.469058	0.108672
90	H	0.202883	0.466265	0.068918
91	C	0.287974	0.483102	0.280429
92	H	0.277551	0.45838	0.283846
93	H	0.312746	0.492642	0.282112
94	H	0.282114	0.48797	0.246605
95	C	0.48753	0.247604	0.346858
96	C	0.504854	0.276237	0.035735
97	C	0.037456	0.292994	0.036211
98	C	0.05452	0.281141	0.013583
99	C	0.03751	0.252227	0.324263
100	H	0.49328	0.285622	0.0513
101	C	0.50491	0.236345	0.324683
102	H	0.493376	0.215382	0.309112
103	C	0.05303	0.323401	0.059546
104	H	0.037016	0.330377	0.072071
105	H	0.068657	0.340993	0.035723
106	H	0.065974	0.322711	0.089017
107	C	0.053142	0.237432	0.300989
108	H	0.068725	0.235445	0.324877
109	H	0.066143	0.251105	0.271581
110	H	0.037161	0.214454	0.288382
111	N	0.18757	0.347344	0.347495
112	C	0.204052	0.330658	0.347149
113	C	0.204076	0.380469	0.348527
114	C	0.154472	0.330956	0.347283
115	C	0.137341	0.31905	0.38807
116	C	0.10492	0.302369	0.387812
117	C	0.087862	0.297802	0.347019
118	C	0.105098	0.31036	0.306371
119	C	0.137527	0.326011	0.306376
120	C	0.225936	0.335622	0.31283
121	C	0.242659	0.319877	0.313039
122	C	0.237638	0.297504	0.346697
123	C	0.215325	0.292197	0.380494
124	C	0.199516	0.308782	0.381272
125	C	0.22419	0.396987	0.384909
126	C	0.241067	0.429436	0.38531
127	C	0.238138	0.447104	0.349922
128	C	0.217789	0.43051	0.313724
129	C	0.201593	0.398102	0.312739
130	H	0.258504	0.324655	0.28776
131	H	0.230192	0.351321	0.28755
132	H	0.184143	0.304327	0.407025
133	H	0.210326	0.275969	0.405229
134	H	0.148535	0.322368	0.418601
135	H	0.093711	0.293584	0.418131
136	H	0.227052	0.38526	0.411262
137	H	0.255844	0.44022	0.411899
138	H	0.214919	0.442081	0.287113
139	H	0.187779	0.387364	0.285287
140	H	0.148858	0.333955	0.275963
141	H	0.094011	0.30804	0.275969
142	N	0.354321	0.180748	0.346919
143	C	0.337799	0.197158	0.346841
144	C	0.337759	0.147802	0.347516
145	C	0.387299	0.197306	0.346724
146	C	0.404338	0.196918	0.308499
147	C	0.436759	0.213155	0.308624
148	C	0.454091	0.230859	0.34682
149	C	0.436651	0.23115	0.384937
150	C	0.404224	0.214833	0.38495
151	C	0.325797	0.202213	0.387573
152	C	0.309831	0.218668	0.387353
153	C	0.30475	0.230809	0.346433
154	C	0.316861	0.225433	0.305722
155	C	0.333069	0.209206	0.30591
156	C	0.327726	0.131139	0.388926
157	C	0.31156	0.098702	0.389341
158	C	0.304497	0.080996	0.3485
159	C	0.314676	0.098161	0.307138
160	C	0.33077	0.13058	0.306605
161	H	0.301292	0.221152	0.417853
162	H	0.328785	0.193937	0.41798
163	H	0.341493	0.206128	0.275702
164	H	0.31458	0.233984	0.275104
165	H	0.393091	0.184847	0.279852
166	H	0.447683	0.212416	0.279517
167	H	0.332472	0.142713	0.419365
168	H	0.305609	0.088066	0.420554
169	H	0.309853	0.087128	0.276239
170	H	0.33728	0.14172	0.275801
171	H	0.392841	0.215631	0.413476
172	H	0.447501	0.242867	0.414045
173	C	0.288137	0.247611	0.67962
174	C	0.290766	0.267596	0.382311
175	C	0.274697	0.284136	0.383034
176	C	0.254198	0.280711	0.346549
177	C	0.251142	0.260533	0.643142
178	H	0.305592	0.270838	0.408516
179	C	0.268186	0.244978	0.643543
180	H	0.265015	0.230227	0.617211
181	C	0.280764	0.305678	0.421943
182	H	0.299031	0.30791	0.444586
183	H	0.260224	0.297657	0.442824
184	H	0.287584	0.328469	0.408766
185	C	0.229905	0.253521	0.603545
186	H	0.215088	0.263379	0.606568
187	H	0.214956	0.228771	0.600395
188	H	0.2432	0.26215	0.57201
189	C	0.287992	0.047507	0.682301
190	C	0.265233	0.030132	0.381992
191	C	0.248934	0.497521	0.383158
192	C	0.255246	0.480423	0.350117
193	C	0.278149	0.497462	0.649703
194	H	0.259689	0.041655	0.405452
195	C	0.293634	0.030053	0.649754
196	H	0.310421	0.041496	0.625812
197	C	0.224654	0.481948	0.418673
198	H	0.221092	0.497945	0.439397
199	H	0.230893	0.469058	0.442005
200	H	0.202883	0.466265	0.40225
201	C	0.287974	0.483102	0.613763
202	H	0.277551	0.45838	0.617181
203	H	0.312746	0.492642	0.615446
204	H	0.282114	0.48797	0.579938
205	C	0.48753	0.247604	0.680193
206	C	0.504854	0.276237	0.36907
207	C	0.037456	0.292994	0.369546
208	C	0.05452	0.281141	0.346916
209	C	0.03751	0.252227	0.657597
210	H	0.49328	0.285622	0.384635
211	C	0.50491	0.236345	0.658015
212	H	0.493376	0.215382	0.642446
213	C	0.05303	0.323401	0.392879
214	H	0.037016	0.330377	0.405404
215	H	0.068657	0.340993	0.369056
216	H	0.065974	0.322711	0.422351
217	C	0.053142	0.237432	0.634323
218	H	0.068725	0.235445	0.658211
219	H	0.066143	0.251105	0.604916
220	H	0.037161	0.214454	0.621715
221	N	0.18757	0.347344	0.680827
222	C	0.204052	0.330658	0.680481
223	C	0.204076	0.380469	0.681862
224	C	0.154472	0.330956	0.680615
225	C	0.137341	0.31905	0.721405
226	C	0.10492	0.302369	0.721148
227	C	0.087862	0.297802	0.680351
228	C	0.105098	0.31036	0.639704
229	C	0.137527	0.326011	0.639711
230	C	0.225936	0.335622	0.646162
231	C	0.242659	0.319877	0.646375
232	C	0.237638	0.297504	0.680028
233	C	0.215325	0.292197	0.713829
234	C	0.199516	0.308782	0.714608
235	C	0.22419	0.396987	0.718244
236	C	0.241067	0.429436	0.718645
237	C	0.238138	0.447104	0.683254
238	C	0.217789	0.43051	0.647057
239	C	0.201593	0.398102	0.646073
240	H	0.258504	0.324655	0.621095
241	H	0.230192	0.351321	0.620882
242	H	0.184143	0.304327	0.740357
243	H	0.210326	0.275969	0.738561
244	H	0.148535	0.322368	0.751932
245	H	0.093711	0.293584	0.751463
246	H	0.227052	0.38526	0.744594
247	H	0.255844	0.44022	0.745234
248	H	0.214919	0.442081	0.620447
249	H	0.187779	0.387364	0.61862
250	H	0.148858	0.333955	0.609297
251	H	0.094011	0.30804	0.609304
252	N	0.354321	0.180748	0.680251
253	C	0.337799	0.197158	0.680172
254	C	0.337759	0.147802	0.680851
255	C	0.387299	0.197306	0.680059
256	C	0.404338	0.196918	0.641833
257	C	0.436759	0.213155	0.641956
258	C	0.454091	0.230859	0.680155
259	C	0.436651	0.23115	0.718272
260	C	0.404224	0.214833	0.718282
261	C	0.325797	0.202213	0.720908
262	C	0.309831	0.218668	0.720688
263	C	0.30475	0.230809	0.679768
264	C	0.316861	0.225433	0.639056
265	C	0.333069	0.209206	0.639245
266	C	0.327726	0.131139	0.722258
267	C	0.31156	0.098702	0.722676
268	C	0.304497	0.080996	0.681835
269	C	0.314676	0.098161	0.640472
270	C	0.33077	0.13058	0.639937
271	H	0.301292	0.221152	0.751189
272	H	0.328785	0.193937	0.751312
273	H	0.341493	0.206128	0.609036
274	H	0.31458	0.233984	0.608436
275	H	0.393091	0.184847	0.613184
276	H	0.447683	0.212416	0.612851
277	H	0.332472	0.142713	0.752697
278	H	0.305609	0.088066	0.75389
279	H	0.309853	0.087128	0.609574
280	H	0.33728	0.14172	0.609136
281	H	0.392841	0.215631	0.746811
282	H	0.447501	0.242867	0.74738
283	C	0.288137	0.247611	0.012956
284	C	0.290766	0.267596	0.715646
285	C	0.274697	0.284136	0.716369
286	C	0.254198	0.280711	0.679884
287	C	0.251142	0.260533	0.976478
288	H	0.305592	0.270838	0.741848
289	C	0.268186	0.244978	0.976875
290	H	0.265015	0.230227	0.950543
291	C	0.280764	0.305678	0.755278
292	H	0.299031	0.30791	0.777918
293	H	0.260224	0.297657	0.77616
294	H	0.287584	0.328469	0.742102
295	C	0.229905	0.253521	0.936877
296	H	0.215088	0.263379	0.939903
297	H	0.214956	0.228771	0.93373
298	H	0.2432	0.26215	0.905341
299	C	0.287992	0.047507	0.015632
300	C	0.265233	0.030132	0.715327
301	C	0.248934	0.497521	0.716493
302	C	0.255246	0.480423	0.683449
303	C	0.278149	0.497462	0.983038
304	H	0.259689	0.041655	0.738787
305	C	0.293634	0.030053	0.983086
306	H	0.310421	0.041496	0.959143
307	C	0.224654	0.481948	0.752004
308	H	0.221092	0.497945	0.772732
309	H	0.230893	0.469058	0.77534
310	H	0.202883	0.466265	0.735585
311	C	0.287974	0.483102	0.947095
312	H	0.277551	0.45838	0.950512
313	H	0.312746	0.492642	0.948781
314	H	0.282114	0.48797	0.913273
315	C	0.48753	0.247604	0.013528
316	C	0.504854	0.276237	0.702401
317	C	0.037456	0.292994	0.702878
318	C	0.05452	0.281141	0.680248
319	C	0.03751	0.252227	0.990932
320	H	0.49328	0.285622	0.717967
321	C	0.50491	0.236345	0.991351
322	H	0.493376	0.215382	0.975778
323	C	0.05303	0.323401	0.726214
324	H	0.037016	0.330377	0.738739
325	H	0.068657	0.340993	0.702391
326	H	0.065974	0.322711	0.755686
327	C	0.053142	0.237432	0.967654
328	H	0.068725	0.235445	0.991546
329	H	0.066143	0.251105	0.938248
330	H	0.037161	0.214454	0.955051
331	N	0.187569	0.847343	0.014162
332	C	0.20405	0.830657	0.013816
333	C	0.204074	0.880467	0.015195
334	C	0.154472	0.830954	0.01395
335	C	0.13734	0.819049	0.054736
336	C	0.104919	0.802368	0.054478
337	C	0.087861	0.797803	0.013686
338	C	0.105098	0.81036	0.973039
339	C	0.137526	0.826011	0.973043
340	C	0.225935	0.83562	0.979497
341	C	0.242657	0.819876	0.979706
342	C	0.237638	0.797505	0.013364
343	C	0.215327	0.7922	0.047162
344	C	0.199516	0.808783	0.047941
345	C	0.224187	0.896988	0.051579
346	C	0.241066	0.929437	0.05198
347	C	0.238138	0.947105	0.016588
348	C	0.21779	0.930511	0.980392
349	C	0.201594	0.898103	0.979405
350	H	0.258502	0.824654	0.954427
351	H	0.230191	0.851319	0.954218
352	H	0.184144	0.804328	0.073692
353	H	0.210327	0.77597	0.071897
354	H	0.148534	0.822367	0.085266
355	H	0.093711	0.793581	0.084795
356	H	0.227048	0.885261	0.077931
357	H	0.255841	0.940218	0.07857
358	H	0.214923	0.942082	0.953779
359	H	0.187779	0.887363	0.951952
360	H	0.148857	0.833958	0.942632
361	H	0.09401	0.808043	0.942639
362	N	0.354321	0.680747	0.013586
363	C	0.337798	0.697159	0.013508
364	C	0.337758	0.647802	0.014182
365	C	0.387299	0.697305	0.013391
366	C	0.404338	0.69692	0.975165
367	C	0.436759	0.713158	0.975292
368	C	0.454089	0.730858	0.01349
369	C	0.43665	0.731148	0.051604
370	C	0.404223	0.714831	0.051616
371	C	0.325799	0.702214	0.05424
372	C	0.309833	0.718671	0.054021
373	C	0.304749	0.730807	0.013103
374	C	0.316859	0.725432	0.972388
375	C	0.333066	0.709204	0.972577
376	C	0.327726	0.631139	0.055592
377	C	0.311561	0.598703	0.056008
378	C	0.304496	0.580996	0.015166
379	C	0.314675	0.598161	0.973804
380	C	0.330769	0.63058	0.973273
381	H	0.301295	0.721155	0.084522
382	H	0.328788	0.693939	0.084646
383	H	0.341489	0.706124	0.942368
384	H	0.314576	0.733981	0.941772
385	H	0.393092	0.68485	0.946519
386	H	0.447683	0.712418	0.946183
387	H	0.332471	0.642712	0.08603
388	H	0.30561	0.588066	0.08722
389	H	0.309851	0.587128	0.942906
390	H	0.337279	0.641721	0.942467
391	H	0.39284	0.715628	0.080145
392	H	0.4475	0.742864	0.080714
393	C	0.288136	0.74761	0.346289
394	C	0.290768	0.767599	0.048976
395	C	0.274698	0.784137	0.049701
396	C	0.254198	0.780711	0.01322
397	C	0.251141	0.760532	0.309811
398	H	0.305593	0.770839	0.075179
399	C	0.268185	0.744977	0.31021
400	H	0.265012	0.730226	0.283879
401	C	0.280766	0.805681	0.088608
402	H	0.299033	0.807913	0.111248
403	H	0.260227	0.797661	0.109492
404	H	0.287586	0.828473	0.075431
405	C	0.229903	0.753519	0.270213
406	H	0.215085	0.763378	0.273238
407	H	0.214953	0.72877	0.267066
408	H	0.243197	0.762148	0.238676
409	C	0.287992	0.547508	0.348966
410	C	0.265233	0.530131	0.04866
411	C	0.248932	0.997522	0.049824
412	C	0.255245	0.980422	0.016784
413	C	0.278149	0.99746	0.316374
414	H	0.25969	0.541654	0.072122
415	C	0.293632	0.530053	0.316417
416	H	0.310417	0.541496	0.292472
417	C	0.224651	0.981949	0.085334
418	H	0.221088	0.997946	0.106058
419	H	0.230887	0.969057	0.10867
420	H	0.202881	0.966266	0.068911
421	C	0.287978	0.983103	0.280434
422	H	0.277553	0.958379	0.283852
423	H	0.312748	0.992641	0.282121
424	H	0.282119	0.987968	0.246609
425	C	0.48753	0.747605	0.346858
426	C	0.504853	0.776235	0.035738
427	C	0.037455	0.792992	0.036214
428	C	0.05452	0.781142	0.013583
429	C	0.03751	0.75223	0.32426
430	H	0.493278	0.78562	0.051306
431	C	0.504908	0.736346	0.32468
432	H	0.493375	0.715385	0.309107
433	C	0.053028	0.823397	0.059552
434	H	0.037015	0.830373	0.072079
435	H	0.068656	0.840992	0.035731
436	H	0.065974	0.822708	0.089023
437	C	0.053139	0.737433	0.300982
438	H	0.068725	0.735448	0.324868
439	H	0.066141	0.751108	0.271575
440	H	0.037161	0.714458	0.288373
441	N	0.187569	0.847343	0.347495
442	C	0.20405	0.830657	0.347149
443	C	0.204074	0.880467	0.34853
444	C	0.154472	0.830954	0.347283
445	C	0.13734	0.819049	0.38807
446	C	0.104919	0.802368	0.387812
447	C	0.087861	0.797803	0.347019
448	C	0.105098	0.81036	0.306372
449	C	0.137526	0.826011	0.306377
450	C	0.225935	0.83562	0.312829
451	C	0.242657	0.819876	0.313039
452	C	0.237638	0.797505	0.346697
453	C	0.215327	0.7922	0.380494
454	C	0.199516	0.808783	0.381276
455	C	0.224187	0.896988	0.384913
456	C	0.241066	0.929437	0.385314
457	C	0.238138	0.947105	0.349922
458	C	0.21779	0.930511	0.313723
459	C	0.201594	0.898103	0.312738
460	H	0.258502	0.824654	0.287759
461	H	0.230191	0.851319	0.287549
462	H	0.184144	0.804328	0.407025
463	H	0.210327	0.77597	0.405232
464	H	0.148534	0.822367	0.418601
465	H	0.093711	0.793581	0.418128
466	H	0.227048	0.885261	0.411265
467	H	0.255841	0.940218	0.411903
468	H	0.214923	0.942082	0.287111
469	H	0.187779	0.887363	0.285285
470	H	0.148857	0.833958	0.275964
471	H	0.09401	0.808043	0.27597
472	N	0.354321	0.680747	0.346916
473	C	0.337798	0.697159	0.346841
474	C	0.337758	0.647802	0.347516
475	C	0.387299	0.697305	0.346724
476	C	0.404338	0.69692	0.308498
477	C	0.436759	0.713158	0.308622
478	C	0.454089	0.730858	0.34682
479	C	0.43665	0.731148	0.384937
480	C	0.404223	0.714831	0.38495
481	C	0.325799	0.702214	0.387576
482	C	0.309833	0.718671	0.387357
483	C	0.304749	0.730807	0.346433
484	C	0.316859	0.725432	0.305722
485	C	0.333066	0.709204	0.30591
486	C	0.327726	0.631139	0.388926
487	C	0.311561	0.598703	0.389341
488	C	0.304496	0.580996	0.3485
489	C	0.314675	0.598161	0.307137
490	C	0.330769	0.63058	0.306605
491	H	0.301295	0.721155	0.417857
492	H	0.328788	0.693939	0.41798
493	H	0.341489	0.706124	0.275701
494	H	0.314576	0.733981	0.275103
495	H	0.393092	0.68485	0.27985
496	H	0.447683	0.712418	0.279515
497	H	0.332471	0.642712	0.419365
498	H	0.30561	0.588066	0.420554
499	H	0.309851	0.587128	0.276239
500	H	0.337279	0.641721	0.2758
501	H	0.39284	0.715628	0.413479
502	H	0.4475	0.742864	0.414048
503	C	0.288136	0.74761	0.67962
504	C	0.290768	0.767599	0.382311
505	C	0.274698	0.784137	0.383034
506	C	0.254198	0.780711	0.346549
507	C	0.251141	0.760532	0.643146
508	H	0.305593	0.770839	0.408513
509	C	0.268185	0.744977	0.643543
510	H	0.265012	0.730226	0.617211
511	C	0.280766	0.805681	0.421943
512	H	0.299033	0.807913	0.444583
513	H	0.260227	0.797661	0.442824
514	H	0.287586	0.828473	0.408766
515	C	0.229903	0.753519	0.603548
516	H	0.215085	0.763378	0.606572
517	H	0.214953	0.72877	0.600398
518	H	0.243197	0.762148	0.57201
519	C	0.287992	0.547508	0.682298
520	C	0.265233	0.530131	0.381992
521	C	0.248932	0.997522	0.383158
522	C	0.255245	0.980422	0.350117
523	C	0.278149	0.99746	0.649706
524	H	0.25969	0.541654	0.405455
525	C	0.293632	0.530053	0.649751
526	H	0.310417	0.541496	0.625805
527	C	0.224651	0.981949	0.418669
528	H	0.221088	0.997946	0.439393
529	H	0.230887	0.969057	0.442005
530	H	0.202881	0.966266	0.402243
531	C	0.287978	0.983103	0.613766
532	H	0.277553	0.958379	0.617187
533	H	0.312748	0.992641	0.615456
534	H	0.282119	0.987968	0.579941
535	C	0.48753	0.747605	0.680193
536	C	0.504853	0.776235	0.369073
537	C	0.037455	0.792992	0.369546
538	C	0.05452	0.781142	0.346916
539	C	0.03751	0.75223	0.657594
540	H	0.493278	0.78562	0.384638
541	C	0.504908	0.736346	0.658012
542	H	0.493375	0.715385	0.64244
543	C	0.053028	0.823397	0.392886
544	H	0.037015	0.830373	0.405414
545	H	0.068656	0.840992	0.369066
546	H	0.065974	0.822708	0.422357
547	C	0.053139	0.737433	0.634316
548	H	0.068725	0.735448	0.658204
549	H	0.066141	0.751108	0.604909
550	H	0.037161	0.714458	0.621705
551	N	0.187569	0.847343	0.680827
552	C	0.20405	0.830657	0.680484
553	C	0.204074	0.880467	0.681862
554	C	0.154472	0.830954	0.680615
555	C	0.13734	0.819049	0.721405
556	C	0.104919	0.802368	0.721144
557	C	0.087861	0.797803	0.680351
558	C	0.105098	0.81036	0.639704
559	C	0.137526	0.826011	0.639711
560	C	0.225935	0.83562	0.646162
561	C	0.242657	0.819876	0.646371
562	C	0.237638	0.797505	0.680028
563	C	0.215327	0.7922	0.713829
564	C	0.199516	0.808783	0.714608
565	C	0.224187	0.896988	0.718248
566	C	0.241066	0.929437	0.718649
567	C	0.238138	0.947105	0.683257
568	C	0.21779	0.930511	0.647057
569	C	0.201594	0.898103	0.64607
570	H	0.258502	0.824654	0.621092
571	H	0.230191	0.851319	0.620882
572	H	0.184144	0.804328	0.74036
573	H	0.210327	0.77597	0.738564
574	H	0.148534	0.822367	0.751932
575	H	0.093711	0.793581	0.751463
576	H	0.227048	0.885261	0.744597
577	H	0.255841	0.940218	0.745238
578	H	0.214923	0.942082	0.620444
579	H	0.187779	0.887363	0.61862
580	H	0.148857	0.833958	0.609297
581	H	0.09401	0.808043	0.609304
582	N	0.354321	0.680747	0.680251
583	C	0.337798	0.697159	0.680172
584	C	0.337758	0.647802	0.680851
585	C	0.387299	0.697305	0.680059
586	C	0.404338	0.69692	0.641833
587	C	0.436759	0.713158	0.641956
588	C	0.454089	0.730858	0.680155
589	C	0.43665	0.731148	0.718272
590	C	0.404223	0.714831	0.718282
591	C	0.325799	0.702214	0.720908
592	C	0.309833	0.718671	0.720688
593	C	0.304749	0.730807	0.679768
594	C	0.316859	0.725432	0.639056
595	C	0.333066	0.709204	0.639245
596	C	0.327726	0.631139	0.722258
597	C	0.311561	0.598703	0.722676
598	C	0.304496	0.580996	0.681835
599	C	0.314675	0.598161	0.640472
600	C	0.330769	0.63058	0.639937
601	H	0.301295	0.721155	0.751189
602	H	0.328788	0.693939	0.751315
603	H	0.341489	0.706124	0.609036
604	H	0.314576	0.733981	0.608436
605	H	0.393092	0.68485	0.613184
606	H	0.447683	0.712418	0.612848
607	H	0.332471	0.642712	0.752697
608	H	0.30561	0.588066	0.753886
609	H	0.309851	0.587128	0.609571
610	H	0.337279	0.641721	0.609136
611	H	0.39284	0.715628	0.746811
612	H	0.4475	0.742864	0.74738
613	C	0.288136	0.74761	0.012956
614	C	0.290768	0.767599	0.715643
615	C	0.274698	0.784137	0.716369
616	C	0.254198	0.780711	0.679884
617	C	0.251141	0.760532	0.976478
618	H	0.305593	0.770839	0.741848
619	C	0.268185	0.744977	0.976879
620	H	0.265012	0.730226	0.950547
621	C	0.280766	0.805681	0.755274
622	H	0.299033	0.807913	0.777915
623	H	0.260227	0.797661	0.77616
624	H	0.287586	0.828473	0.742098
625	C	0.229903	0.753519	0.93688
626	H	0.215085	0.763378	0.939907
627	H	0.214953	0.72877	0.933733
628	H	0.243197	0.762148	0.905345
629	C	0.287992	0.547508	0.015631
630	C	0.265233	0.530131	0.715327
631	C	0.248932	0.997522	0.716493
632	C	0.255245	0.980422	0.683453
633	C	0.278149	0.99746	0.983042
634	H	0.25969	0.541654	0.73879
635	C	0.293632	0.530053	0.983086
636	H	0.310417	0.541496	0.95914
637	C	0.224651	0.981949	0.752001
638	H	0.221088	0.997946	0.772725
639	H	0.230887	0.969057	0.775337
640	H	0.202881	0.966266	0.735579
641	C	0.287978	0.983103	0.947102
642	H	0.277553	0.958379	0.950519
643	H	0.312748	0.992641	0.948788
644	H	0.282119	0.987968	0.913277
645	C	0.48753	0.747605	0.013528
646	C	0.504853	0.776235	0.702405
647	C	0.037455	0.792992	0.702881
648	C	0.05452	0.781142	0.680248
649	C	0.03751	0.75223	0.990929
650	H	0.493278	0.78562	0.717974
651	C	0.504908	0.736346	0.991347
652	H	0.493375	0.715385	0.975775
653	C	0.053028	0.823397	0.726221
654	H	0.037015	0.830373	0.738746
655	H	0.068656	0.840992	0.702398
656	H	0.065974	0.822708	0.755689
657	C	0.053139	0.737433	0.967648
658	H	0.068725	0.735448	0.991536
659	H	0.066141	0.751108	0.938244
660	H	0.037161	0.714458	0.95504
661	N	0.68757	0.347344	0.014162
662	C	0.704051	0.330658	0.013816
663	C	0.704075	0.380469	0.015195
664	C	0.654472	0.330956	0.01395
665	C	0.637341	0.31905	0.054736
666	C	0.60492	0.302369	0.054479
667	C	0.587862	0.297802	0.013686
668	C	0.605098	0.31036	0.973039
669	C	0.637527	0.326011	0.973043
670	C	0.725936	0.335622	0.979497
671	C	0.742658	0.319877	0.979706
672	C	0.737638	0.297504	0.013364
673	C	0.715325	0.292197	0.047161
674	C	0.699515	0.308782	0.04794
675	C	0.724189	0.396987	0.051577
676	C	0.741068	0.429436	0.051978
677	C	0.738138	0.447104	0.016588
678	C	0.717788	0.43051	0.980392
679	C	0.701594	0.398102	0.979405
680	H	0.758504	0.324655	0.954427
681	H	0.730193	0.351321	0.954218
682	H	0.684142	0.304327	0.07369
683	H	0.710326	0.275969	0.071895
684	H	0.648535	0.322368	0.085266
685	H	0.59371	0.293584	0.084796
686	H	0.727052	0.38526	0.077928
687	H	0.755844	0.44022	0.078566
688	H	0.714918	0.442081	0.953779
689	H	0.687778	0.387364	0.951955
690	H	0.648858	0.333955	0.942632
691	H	0.594011	0.30804	0.942635
692	N	0.854322	0.180748	0.013586
693	C	0.837798	0.197158	0.013508
694	C	0.837758	0.147802	0.014182
695	C	0.8873	0.197306	0.013391
696	C	0.904339	0.196918	0.975165
697	C	0.93676	0.213155	0.975292
698	C	0.95409	0.230859	0.01349
699	C	0.93665	0.23115	0.051603
700	C	0.904223	0.214833	0.051615
701	C	0.825798	0.202213	0.05424
702	C	0.809832	0.218668	0.054021
703	C	0.804751	0.230809	0.013103
704	C	0.81686	0.225433	0.972388
705	C	0.833068	0.209206	0.972577
706	C	0.827725	0.131139	0.055592
707	C	0.81156	0.098702	0.056009
708	C	0.804496	0.080996	0.015167
709	C	0.814677	0.098161	0.973804
710	C	0.830769	0.13058	0.973273
711	H	0.801293	0.221152	0.08452
712	H	0.828786	0.193937	0.084645
713	H	0.841494	0.206128	0.942371
714	H	0.814581	0.233984	0.941772
715	H	0.893092	0.184847	0.946519
716	H	0.947684	0.212416	0.946186
717	H	0.832471	0.142713	0.08603
718	H	0.80561	0.088066	0.087221
719	H	0.809852	0.087128	0.942906
720	H	0.837279	0.14172	0.942467
721	H	0.89284	0.215631	0.080143
722	H	0.9475	0.242867	0.080713
723	C	0.788136	0.247611	0.346289
724	C	0.790766	0.267596	0.048977
725	C	0.774697	0.284136	0.049701
726	C	0.754198	0.280711	0.01322
727	C	0.751142	0.260533	0.309809
728	H	0.805592	0.270838	0.075181
729	C	0.768185	0.244978	0.310209
730	H	0.765015	0.230227	0.283877
731	C	0.780763	0.305678	0.08861
732	H	0.79903	0.30791	0.111251
733	H	0.760223	0.297657	0.109492
734	H	0.787583	0.328469	0.075434
735	C	0.729904	0.253521	0.270211
736	H	0.715087	0.263379	0.273236
737	H	0.714956	0.228771	0.267062
738	H	0.743201	0.26215	0.238675
739	C	0.787991	0.047507	0.348966
740	C	0.765232	0.030132	0.048658
741	C	0.748934	0.497521	0.049825
742	C	0.755245	0.480423	0.016783
743	C	0.77815	0.497462	0.316371
744	H	0.759688	0.041655	0.072119
745	C	0.793633	0.030053	0.31642
746	H	0.81042	0.041496	0.292476
747	C	0.724654	0.481948	0.085338
748	H	0.721091	0.497945	0.106064
749	H	0.730893	0.469058	0.108672
750	H	0.702882	0.466265	0.068918
751	C	0.787974	0.483102	0.280429
752	H	0.77755	0.45838	0.283846
753	H	0.812746	0.492642	0.282112
754	H	0.782114	0.48797	0.246605
755	C	0.987531	0.247604	0.346858
756	C	0.004855	0.276237	0.035735
757	C	0.537456	0.292994	0.036211
758	C	0.554519	0.281141	0.013583
759	C	0.537511	0.252227	0.324263
760	H	0.993279	0.285622	0.0513
761	C	0.004909	0.236345	0.324683
762	H	0.993375	0.215382	0.309112
763	C	0.55303	0.323401	0.059546
764	H	0.537015	0.330377	0.072071
765	H	0.568657	0.340993	0.035723
766	H	0.565974	0.322711	0.089017
767	C	0.553141	0.237432	0.300989
768	H	0.568725	0.235445	0.324877
769	H	0.566144	0.251105	0.271581
770	H	0.537161	0.214454	0.288382
771	N	0.68757	0.347344	0.347495
772	C	0.704051	0.330658	0.347149
773	C	0.704075	0.380469	0.348527
774	C	0.654472	0.330956	0.347283
775	C	0.637341	0.31905	0.38807
776	C	0.60492	0.302369	0.387812
777	C	0.587862	0.297802	0.347019
778	C	0.605098	0.31036	0.306371
779	C	0.637527	0.326011	0.306376
780	C	0.725936	0.335622	0.31283
781	C	0.742658	0.319877	0.313039
782	C	0.737638	0.297504	0.346697
783	C	0.715325	0.292197	0.380494
784	C	0.699515	0.308782	0.381272
785	C	0.724189	0.396987	0.384909
786	C	0.741068	0.429436	0.38531
787	C	0.738138	0.447104	0.349922
788	C	0.717788	0.43051	0.313724
789	C	0.701594	0.398102	0.312739
790	H	0.758504	0.324655	0.28776
791	H	0.730193	0.351321	0.28755
792	H	0.684142	0.304327	0.407025
793	H	0.710326	0.275969	0.405229
794	H	0.648535	0.322368	0.418601
795	H	0.59371	0.293584	0.418131
796	H	0.727052	0.38526	0.411262
797	H	0.755844	0.44022	0.411899
798	H	0.714918	0.442081	0.287113
799	H	0.687778	0.387364	0.285287
800	H	0.648858	0.333955	0.275963
801	H	0.594011	0.30804	0.275969
802	N	0.854322	0.180748	0.346919
803	C	0.837798	0.197158	0.346841
804	C	0.837758	0.147802	0.347516
805	C	0.8873	0.197306	0.346724
806	C	0.904339	0.196918	0.308499
807	C	0.93676	0.213155	0.308624
808	C	0.95409	0.230859	0.34682
809	C	0.93665	0.23115	0.384937
810	C	0.904223	0.214833	0.38495
811	C	0.825798	0.202213	0.387573
812	C	0.809832	0.218668	0.387353
813	C	0.804751	0.230809	0.346433
814	C	0.81686	0.225433	0.305722
815	C	0.833068	0.209206	0.30591
816	C	0.827725	0.131139	0.388926
817	C	0.81156	0.098702	0.389341
818	C	0.804496	0.080996	0.3485
819	C	0.814677	0.098161	0.307138
820	C	0.830769	0.13058	0.306605
821	H	0.801293	0.221152	0.417853
822	H	0.828786	0.193937	0.41798
823	H	0.841494	0.206128	0.275702
824	H	0.814581	0.233984	0.275104
825	H	0.893092	0.184847	0.279852
826	H	0.947684	0.212416	0.279517
827	H	0.832471	0.142713	0.419365
828	H	0.80561	0.088066	0.420554
829	H	0.809852	0.087128	0.276239
830	H	0.837279	0.14172	0.275801
831	H	0.89284	0.215631	0.413476
832	H	0.9475	0.242867	0.414045
833	C	0.788136	0.247611	0.67962
834	C	0.790766	0.267596	0.382311
835	C	0.774697	0.284136	0.383034
836	C	0.754198	0.280711	0.346549
837	C	0.751142	0.260533	0.643142
838	H	0.805592	0.270838	0.408516
839	C	0.768185	0.244978	0.643543
840	H	0.765015	0.230227	0.617211
841	C	0.780763	0.305678	0.421943
842	H	0.79903	0.30791	0.444586
843	H	0.760223	0.297657	0.442824
844	H	0.787583	0.328469	0.408766
845	C	0.729904	0.253521	0.603545
846	H	0.715087	0.263379	0.606568
847	H	0.714956	0.228771	0.600395
848	H	0.743201	0.26215	0.57201
849	C	0.787991	0.047507	0.682301
850	C	0.765232	0.030132	0.381992
851	C	0.748934	0.497521	0.383158
852	C	0.755245	0.480423	0.350117
853	C	0.77815	0.497462	0.649703
854	H	0.759688	0.041655	0.405452
855	C	0.793633	0.030053	0.649754
856	H	0.81042	0.041496	0.625812
857	C	0.724654	0.481948	0.418673
858	H	0.721091	0.497945	0.439397
859	H	0.730893	0.469058	0.442005
860	H	0.702882	0.466265	0.40225
861	C	0.787974	0.483102	0.613763
862	H	0.77755	0.45838	0.617181
863	H	0.812746	0.492642	0.615446
864	H	0.782114	0.48797	0.579938
865	C	0.987531	0.247604	0.680193
866	C	0.004855	0.276237	0.36907
867	C	0.537456	0.292994	0.369546
868	C	0.554519	0.281141	0.346916
869	C	0.537511	0.252227	0.657597
870	H	0.993279	0.285622	0.384635
871	C	0.004909	0.236345	0.658015
872	H	0.993375	0.215382	0.642446
873	C	0.55303	0.323401	0.392879
874	H	0.537015	0.330377	0.405404
875	H	0.568657	0.340993	0.369056
876	H	0.565974	0.322711	0.422351
877	C	0.553141	0.237432	0.634323
878	H	0.568725	0.235445	0.658211
879	H	0.566144	0.251105	0.604916
880	H	0.537161	0.214454	0.621715
881	N	0.68757	0.347344	0.680827
882	C	0.704051	0.330658	0.680481
883	C	0.704075	0.380469	0.681862
884	C	0.654472	0.330956	0.680615
885	C	0.637341	0.31905	0.721405
886	C	0.60492	0.302369	0.721148
887	C	0.587862	0.297802	0.680351
888	C	0.605098	0.31036	0.639704
889	C	0.637527	0.326011	0.639711
890	C	0.725936	0.335622	0.646162
891	C	0.742658	0.319877	0.646375
892	C	0.737638	0.297504	0.680028
893	C	0.715325	0.292197	0.713829
894	C	0.699515	0.308782	0.714608
895	C	0.724189	0.396987	0.718244
896	C	0.741068	0.429436	0.718645
897	C	0.738138	0.447104	0.683254
898	C	0.717788	0.43051	0.647057
899	C	0.701594	0.398102	0.646073
900	H	0.758504	0.324655	0.621095
901	H	0.730193	0.351321	0.620882
902	H	0.684142	0.304327	0.740357
903	H	0.710326	0.275969	0.738561
904	H	0.648535	0.322368	0.751932
905	H	0.59371	0.293584	0.751463
906	H	0.727052	0.38526	0.744594
907	H	0.755844	0.44022	0.745234
908	H	0.714918	0.442081	0.620447
909	H	0.687778	0.387364	0.61862
910	H	0.648858	0.333955	0.609297
911	H	0.594011	0.30804	0.609304
912	N	0.854322	0.180748	0.680251
913	C	0.837798	0.197158	0.680172
914	C	0.837758	0.147802	0.680851
915	C	0.8873	0.197306	0.680059
916	C	0.904339	0.196918	0.641833
917	C	0.93676	0.213155	0.641956
918	C	0.95409	0.230859	0.680155
919	C	0.93665	0.23115	0.718272
920	C	0.904223	0.214833	0.718282
921	C	0.825798	0.202213	0.720908
922	C	0.809832	0.218668	0.720688
923	C	0.804751	0.230809	0.679768
924	C	0.81686	0.225433	0.639056
925	C	0.833068	0.209206	0.639245
926	C	0.827725	0.131139	0.722258
927	C	0.81156	0.098702	0.722676
928	C	0.804496	0.080996	0.681835
929	C	0.814677	0.098161	0.640472
930	C	0.830769	0.13058	0.639937
931	H	0.801293	0.221152	0.751189
932	H	0.828786	0.193937	0.751312
933	H	0.841494	0.206128	0.609036
934	H	0.814581	0.233984	0.608436
935	H	0.893092	0.184847	0.613184
936	H	0.947684	0.212416	0.612851
937	H	0.832471	0.142713	0.752697
938	H	0.80561	0.088066	0.75389
939	H	0.809852	0.087128	0.609574
940	H	0.837279	0.14172	0.609136
941	H	0.89284	0.215631	0.746811
942	H	0.9475	0.242867	0.74738
943	C	0.788136	0.247611	0.012956
944	C	0.790766	0.267596	0.715646
945	C	0.774697	0.284136	0.716369
946	C	0.754198	0.280711	0.679884
947	C	0.751142	0.260533	0.976478
948	H	0.805592	0.270838	0.741848
949	C	0.768185	0.244978	0.976875
950	H	0.765015	0.230227	0.950543
951	C	0.780763	0.305678	0.755278
952	H	0.79903	0.30791	0.777918
953	H	0.760223	0.297657	0.77616
954	H	0.787583	0.328469	0.742102
955	C	0.729904	0.253521	0.936877
956	H	0.715087	0.263379	0.939903
957	H	0.714956	0.228771	0.93373
958	H	0.743201	0.26215	0.905341
959	C	0.787991	0.047507	0.015632
960	C	0.765232	0.030132	0.715327
961	C	0.748934	0.497521	0.716493
962	C	0.755245	0.480423	0.683449
963	C	0.77815	0.497462	0.983038
964	H	0.759688	0.041655	0.738787
965	C	0.793633	0.030053	0.983086
966	H	0.81042	0.041496	0.959143
967	C	0.724654	0.481948	0.752004
968	H	0.721091	0.497945	0.772732
969	H	0.730893	0.469058	0.77534
970	H	0.702882	0.466265	0.735585
971	C	0.787974	0.483102	0.947095
972	H	0.77755	0.45838	0.950512
973	H	0.812746	0.492642	0.948781
974	H	0.782114	0.48797	0.913273
975	C	0.987531	0.247604	0.013528
976	C	0.004855	0.276237	0.702401
977	C	0.537456	0.292994	0.702878
978	C	0.554519	0.281141	0.680248
979	C	0.537511	0.252227	0.990932
980	H	0.993279	0.285622	0.717967
981	C	0.004909	0.236345	0.991351
982	H	0.993375	0.215382	0.975778
983	C	0.55303	0.323401	0.726214
984	H	0.537015	0.330377	0.738739
985	H	0.568657	0.340993	0.702391
986	H	0.565974	0.322711	0.755686
987	C	0.553141	0.237432	0.967654
988	H	0.568725	0.235445	0.991546
989	H	0.566144	0.251105	0.938248
990	H	0.537161	0.214454	0.955051
991	N	0.687568	0.847343	0.014162
992	C	0.704051	0.830657	0.013816
993	C	0.704075	0.880467	0.015195
994	C	0.654471	0.830954	0.01395
995	C	0.637339	0.819049	0.054736
996	C	0.60492	0.802368	0.054478
997	C	0.587861	0.797803	0.013686
998	C	0.605097	0.81036	0.973039
999	C	0.637525	0.826011	0.973043
1000	C	0.725935	0.83562	0.979497
1001	C	0.742656	0.819876	0.979706
1002	C	0.737637	0.797505	0.013364
1003	C	0.715326	0.7922	0.047162
1004	C	0.699517	0.808783	0.047941
1005	C	0.724188	0.896988	0.051579
1006	C	0.741065	0.929437	0.05198
1007	C	0.738137	0.947105	0.016588
1008	C	0.717791	0.930511	0.980392
1009	C	0.701595	0.898103	0.979405
1010	H	0.758502	0.824654	0.954427
1011	H	0.730189	0.851319	0.954218
1012	H	0.684143	0.804328	0.073692
1013	H	0.710328	0.77597	0.071897
1014	H	0.648535	0.822367	0.085266
1015	H	0.593709	0.793581	0.084795
1016	H	0.727049	0.885261	0.077931
1017	H	0.75584	0.940218	0.07857
1018	H	0.714922	0.942082	0.953779
1019	H	0.68778	0.887363	0.951952
1020	H	0.648858	0.833958	0.942632
1021	H	0.59401	0.808043	0.942639
1022	N	0.854321	0.680747	0.013586
1023	C	0.837797	0.697159	0.013508
1024	C	0.837759	0.647802	0.014182
1025	C	0.887299	0.697305	0.013391
1026	C	0.904339	0.69692	0.975165
1027	C	0.936758	0.713158	0.975292
1028	C	0.954088	0.730858	0.01349
1029	C	0.936651	0.731148	0.051604
1030	C	0.904223	0.714831	0.051616
1031	C	0.825799	0.702214	0.05424
1032	C	0.809832	0.718671	0.054021
1033	C	0.804749	0.730807	0.013103
1034	C	0.816859	0.725432	0.972388
1035	C	0.833065	0.709204	0.972577
1036	C	0.827726	0.631139	0.055592
1037	C	0.81156	0.598703	0.056008
1038	C	0.804495	0.580996	0.015166
1039	C	0.814675	0.598161	0.973804
1040	C	0.830768	0.63058	0.973273
1041	H	0.801295	0.721155	0.084522
1042	H	0.828788	0.693939	0.084646
1043	H	0.841489	0.706124	0.942368
1044	H	0.814576	0.733981	0.941772
1045	H	0.893091	0.68485	0.946519
1046	H	0.947682	0.712418	0.946183
1047	H	0.83247	0.642712	0.08603
1048	H	0.805609	0.588066	0.08722
1049	H	0.809851	0.587128	0.942906
1050	H	0.837278	0.641721	0.942467
1051	H	0.89284	0.715628	0.080145
1052	H	0.947499	0.742864	0.080714
1053	C	0.788136	0.74761	0.346289
1054	C	0.790767	0.767599	0.048976
1055	C	0.774697	0.784137	0.049701
1056	C	0.754198	0.780711	0.01322
1057	C	0.751141	0.760532	0.309811
1058	H	0.805594	0.770839	0.075179
1059	C	0.768184	0.744977	0.31021
1060	H	0.765011	0.730226	0.283879
1061	C	0.780766	0.805681	0.088608
1062	H	0.799033	0.807913	0.111248
1063	H	0.760226	0.797661	0.109492
1064	H	0.787586	0.828473	0.075431
1065	C	0.729903	0.753519	0.270213
1066	H	0.715086	0.763378	0.273238
1067	H	0.714952	0.72877	0.267066
1068	H	0.743197	0.762148	0.238676
1069	C	0.787993	0.547508	0.348966
1070	C	0.765232	0.530131	0.04866
1071	C	0.748931	0.997522	0.049824
1072	C	0.755246	0.980422	0.016784
1073	C	0.77815	0.99746	0.316374
1074	H	0.75969	0.541654	0.072122
1075	C	0.793632	0.530053	0.316417
1076	H	0.810417	0.541496	0.292472
1077	C	0.72465	0.981949	0.085334
1078	H	0.721087	0.997946	0.106058
1079	H	0.730886	0.969057	0.10867
1080	H	0.70288	0.966266	0.068911
1081	C	0.787977	0.983103	0.280434
1082	H	0.777552	0.958379	0.283852
1083	H	0.812748	0.992641	0.282121
1084	H	0.782118	0.987968	0.246609
1085	C	0.98753	0.747605	0.346858
1086	C	0.004853	0.776235	0.035738
1087	C	0.537455	0.792992	0.036214
1088	C	0.554519	0.781142	0.013583
1089	C	0.53751	0.75223	0.32426
1090	H	0.993277	0.78562	0.051306
1091	C	0.004908	0.736346	0.32468
1092	H	0.993375	0.715385	0.309107
1093	C	0.553028	0.823397	0.059552
1094	H	0.537014	0.830373	0.072079
1095	H	0.568656	0.840992	0.035731
1096	H	0.565973	0.822708	0.089023
1097	C	0.55314	0.737433	0.300982
1098	H	0.568726	0.735448	0.324868
1099	H	0.566142	0.751108	0.271575
1100	H	0.53716	0.714458	0.288373
1101	N	0.687568	0.847343	0.347495
1102	C	0.704051	0.830657	0.347149
1103	C	0.704075	0.880467	0.34853
1104	C	0.654471	0.830954	0.347283
1105	C	0.637339	0.819049	0.38807
1106	C	0.60492	0.802368	0.387812
1107	C	0.587861	0.797803	0.347019
1108	C	0.605097	0.81036	0.306372
1109	C	0.637525	0.826011	0.306377
1110	C	0.725935	0.83562	0.312829
1111	C	0.742656	0.819876	0.313039
1112	C	0.737637	0.797505	0.346697
1113	C	0.715326	0.7922	0.380494
1114	C	0.699517	0.808783	0.381276
1115	C	0.724188	0.896988	0.384913
1116	C	0.741065	0.929437	0.385314
1117	C	0.738137	0.947105	0.349922
1118	C	0.717791	0.930511	0.313723
1119	C	0.701595	0.898103	0.312738
1120	H	0.758502	0.824654	0.287759
1121	H	0.730189	0.851319	0.287549
1122	H	0.684143	0.804328	0.407025
1123	H	0.710328	0.77597	0.405232
1124	H	0.648535	0.822367	0.418601
1125	H	0.593709	0.793581	0.418128
1126	H	0.727049	0.885261	0.411265
1127	H	0.75584	0.940218	0.411903
1128	H	0.714922	0.942082	0.287111
1129	H	0.68778	0.887363	0.285285
1130	H	0.648858	0.833958	0.275964
1131	H	0.59401	0.808043	0.27597
1132	N	0.854321	0.680747	0.346916
1133	C	0.837797	0.697159	0.346841
1134	C	0.837759	0.647802	0.347516
1135	C	0.887299	0.697305	0.346724
1136	C	0.904339	0.69692	0.308498
1137	C	0.936758	0.713158	0.308622
1138	C	0.954088	0.730858	0.34682
1139	C	0.936651	0.731148	0.384937
1140	C	0.904223	0.714831	0.38495
1141	C	0.825799	0.702214	0.387576
1142	C	0.809832	0.718671	0.387357
1143	C	0.804749	0.730807	0.346433
1144	C	0.816859	0.725432	0.305722
1145	C	0.833065	0.709204	0.30591
1146	C	0.827726	0.631139	0.388926
1147	C	0.81156	0.598703	0.389341
1148	C	0.804495	0.580996	0.3485
1149	C	0.814675	0.598161	0.307137
1150	C	0.830768	0.63058	0.306605
1151	H	0.801295	0.721155	0.417857
1152	H	0.828788	0.693939	0.41798
1153	H	0.841489	0.706124	0.275701
1154	H	0.814576	0.733981	0.275103
1155	H	0.893091	0.68485	0.27985
1156	H	0.947682	0.712418	0.279515
1157	H	0.83247	0.642712	0.419365
1158	H	0.805609	0.588066	0.420554
1159	H	0.809851	0.587128	0.276239
1160	H	0.837278	0.641721	0.2758
1161	H	0.89284	0.715628	0.413479
1162	H	0.947499	0.742864	0.414048
1163	C	0.788136	0.74761	0.67962
1164	C	0.790767	0.767599	0.382311
1165	C	0.774697	0.784137	0.383034
1166	C	0.754198	0.780711	0.346549
1167	C	0.751141	0.760532	0.643146
1168	H	0.805594	0.770839	0.408513
1169	C	0.768184	0.744977	0.643543
1170	H	0.765011	0.730226	0.617211
1171	C	0.780766	0.805681	0.421943
1172	H	0.799033	0.807913	0.444583
1173	H	0.760226	0.797661	0.442824
1174	H	0.787586	0.828473	0.408766
1175	C	0.729903	0.753519	0.603548
1176	H	0.715086	0.763378	0.606572
1177	H	0.714952	0.72877	0.600398
1178	H	0.743197	0.762148	0.57201
1179	C	0.787993	0.547508	0.682298
1180	C	0.765232	0.530131	0.381992
1181	C	0.748931	0.997522	0.383158
1182	C	0.755246	0.980422	0.350117
1183	C	0.77815	0.99746	0.649706
1184	H	0.75969	0.541654	0.405455
1185	C	0.793632	0.530053	0.649751
1186	H	0.810417	0.541496	0.625805
1187	C	0.72465	0.981949	0.418669
1188	H	0.721087	0.997946	0.439393
1189	H	0.730886	0.969057	0.442005
1190	H	0.70288	0.966266	0.402243
1191	C	0.787977	0.983103	0.613766
1192	H	0.777552	0.958379	0.617187
1193	H	0.812748	0.992641	0.615456
1194	H	0.782118	0.987968	0.579941
1195	C	0.98753	0.747605	0.680193
1196	C	0.004853	0.776235	0.369073
1197	C	0.537455	0.792992	0.369546
1198	C	0.554519	0.781142	0.346916
1199	C	0.53751	0.75223	0.657594
1200	H	0.993277	0.78562	0.384638
1201	C	0.004908	0.736346	0.658012
1202	H	0.993375	0.715385	0.64244
1203	C	0.553028	0.823397	0.392886
1204	H	0.537014	0.830373	0.405414
1205	H	0.568656	0.840992	0.369066
1206	H	0.565973	0.822708	0.422357
1207	C	0.55314	0.737433	0.634316
1208	H	0.568726	0.735448	0.658204
1209	H	0.566142	0.751108	0.604909
1210	H	0.53716	0.714458	0.621705
1211	N	0.687568	0.847343	0.680827
1212	C	0.704051	0.830657	0.680484
1213	C	0.704075	0.880467	0.681862
1214	C	0.654471	0.830954	0.680615
1215	C	0.637339	0.819049	0.721405
1216	C	0.60492	0.802368	0.721144
1217	C	0.587861	0.797803	0.680351
1218	C	0.605097	0.81036	0.639704
1219	C	0.637525	0.826011	0.639711
1220	C	0.725935	0.83562	0.646162
1221	C	0.742656	0.819876	0.646371
1222	C	0.737637	0.797505	0.680028
1223	C	0.715326	0.7922	0.713829
1224	C	0.699517	0.808783	0.714608
1225	C	0.724188	0.896988	0.718248
1226	C	0.741065	0.929437	0.718649
1227	C	0.738137	0.947105	0.683257
1228	C	0.717791	0.930511	0.647057
1229	C	0.701595	0.898103	0.64607
1230	H	0.758502	0.824654	0.621092
1231	H	0.730189	0.851319	0.620882
1232	H	0.684143	0.804328	0.74036
1233	H	0.710328	0.77597	0.738564
1234	H	0.648535	0.822367	0.751932
1235	H	0.593709	0.793581	0.751463
1236	H	0.727049	0.885261	0.744597
1237	H	0.75584	0.940218	0.745238
1238	H	0.714922	0.942082	0.620444
1239	H	0.68778	0.887363	0.61862
1240	H	0.648858	0.833958	0.609297
1241	H	0.59401	0.808043	0.609304
1242	N	0.854321	0.680747	0.680251
1243	C	0.837797	0.697159	0.680172
1244	C	0.837759	0.647802	0.680851
1245	C	0.887299	0.697305	0.680059
1246	C	0.904339	0.69692	0.641833
1247	C	0.936758	0.713158	0.641956
1248	C	0.954088	0.730858	0.680155
1249	C	0.936651	0.731148	0.718272
1250	C	0.904223	0.714831	0.718282
1251	C	0.825799	0.702214	0.720908
1252	C	0.809832	0.718671	0.720688
1253	C	0.804749	0.730807	0.679768
1254	C	0.816859	0.725432	0.639056
1255	C	0.833065	0.709204	0.639245
1256	C	0.827726	0.631139	0.722258
1257	C	0.81156	0.598703	0.722676
1258	C	0.804495	0.580996	0.681835
1259	C	0.814675	0.598161	0.640472
1260	C	0.830768	0.63058	0.639937
1261	H	0.801295	0.721155	0.751189
1262	H	0.828788	0.693939	0.751315
1263	H	0.841489	0.706124	0.609036
1264	H	0.814576	0.733981	0.608436
1265	H	0.893091	0.68485	0.613184
1266	H	0.947682	0.712418	0.612848
1267	H	0.83247	0.642712	0.752697
1268	H	0.805609	0.588066	0.753886
1269	H	0.809851	0.587128	0.609571
1270	H	0.837278	0.641721	0.609136
1271	H	0.89284	0.715628	0.746811
1272	H	0.947499	0.742864	0.74738
1273	C	0.788136	0.74761	0.012956
1274	C	0.790767	0.767599	0.715643
1275	C	0.774697	0.784137	0.716369
1276	C	0.754198	0.780711	0.679884
1277	C	0.751141	0.760532	0.976478
1278	H	0.805594	0.770839	0.741848
1279	C	0.768184	0.744977	0.976879
1280	H	0.765011	0.730226	0.950547
1281	C	0.780766	0.805681	0.755274
1282	H	0.799033	0.807913	0.777915
1283	H	0.760226	0.797661	0.77616
1284	H	0.787586	0.828473	0.742098
1285	C	0.729903	0.753519	0.93688
1286	H	0.715086	0.763378	0.939907
1287	H	0.714952	0.72877	0.933733
1288	H	0.743197	0.762148	0.905345
1289	C	0.787993	0.547508	0.015631
1290	C	0.765232	0.530131	0.715327
1291	C	0.748931	0.997522	0.716493
1292	C	0.755246	0.980422	0.683453
1293	C	0.77815	0.99746	0.983042
1294	H	0.75969	0.541654	0.73879
1295	C	0.793632	0.530053	0.983086
1296	H	0.810417	0.541496	0.95914
1297	C	0.72465	0.981949	0.752001
1298	H	0.721087	0.997946	0.772725
1299	H	0.730886	0.969057	0.775337
1300	H	0.70288	0.966266	0.735579
1301	C	0.787977	0.983103	0.947102
1302	H	0.777552	0.958379	0.950519
1303	H	0.812748	0.992641	0.948788
1304	H	0.782118	0.987968	0.913277
1305	C	0.98753	0.747605	0.013528
1306	C	0.004853	0.776235	0.702405
1307	C	0.537455	0.792992	0.702881
1308	C	0.554519	0.781142	0.680248
1309	C	0.53751	0.75223	0.990929
1310	H	0.993277	0.78562	0.717974
1311	C	0.004908	0.736346	0.991347
1312	H	0.993375	0.715385	0.975775
1313	C	0.553028	0.823397	0.726221
1314	H	0.537014	0.830373	0.738746
1315	H	0.568656	0.840992	0.702398
1316	H	0.565973	0.822708	0.755689
1317	C	0.55314	0.737433	0.967648
1318	H	0.568726	0.735448	0.991536
1319	H	0.566142	0.751108	0.938244
1320	H	0.53716	0.714458	0.95504
