data_C720H360N144O72_2018-02-15_10:35:32
#******************************************
#
# CIF file created by Zeo++
# Zeo++ is an open source package to
# analyze microporous materials
#
#*******************************************

_cell_length_a		46.4073   
_cell_length_b		46.4073   
_cell_length_c		29.6212   
_cell_angle_alpha		90   
_cell_angle_beta		90   
_cell_angle_gamma		120   

_symmetry_space_group_name_H-M		'P1'
_symmetry_Int_Tables_number		1
_symmetry_cell_setting		Monoclinic

loop_
_symmetry_equiv_pos_as_xyz
'+x,+y,+z'

loop_
_atom_site_label
_atom_site_type_symbol
_atom_site_fract_x
_atom_site_fract_y
_atom_site_fract_z
1	C	0.027659	0.26541	0.34003
2	C	0.046964	0.301041	0.339044
3	C	0.082134	0.319108	0.338038
4	C	0.099462	0.30131	0.338369
5	C	0.082146	0.266186	0.005549
6	C	0.04698	0.24909	0.006963
7	H	0.035826	0.315152	0.338301
8	O	0.133422	0.318297	0.338774
9	H	0.139772	0.321733	0.037529
10	H	0.035853	0.22384	0.007647
11	N	0.118411	0.254057	0.298757
12	C	0.100703	0.2496	0.00405
13	C	0.115347	0.246128	0.04403
14	H	0.106547	0.247815	0.074995
15	C	0.118466	0.369225	0.295967
16	C	0.143605	0.400743	0.044023
17	N	0.115362	0.370499	0.041757
18	C	0.100658	0.354243	0.00272
19	H	0.112074	0.35656	0.266001
20	C	0.027659	0.26541	0.673365
21	C	0.046964	0.301041	0.672376
22	C	0.082134	0.319108	0.67137
23	C	0.099462	0.30131	0.671704
24	C	0.082146	0.266186	0.338882
25	C	0.04698	0.24909	0.340296
26	H	0.035826	0.315152	0.671636
27	O	0.133422	0.318297	0.672109
28	H	0.139772	0.321733	0.370862
29	H	0.035853	0.22384	0.340982
30	N	0.118411	0.254057	0.63209
31	C	0.100703	0.2496	0.337384
32	C	0.115347	0.246128	0.377364
33	H	0.106547	0.247815	0.408329
34	C	0.118466	0.369225	0.629302
35	C	0.143605	0.400743	0.377358
36	N	0.115362	0.370499	0.375092
37	C	0.100658	0.354243	0.336051
38	H	0.112074	0.35656	0.599334
39	C	0.027659	0.26541	0.006697
40	C	0.046964	0.301041	0.005711
41	C	0.082134	0.319108	0.004705
42	C	0.099462	0.30131	0.005036
43	C	0.082146	0.266186	0.672217
44	C	0.04698	0.24909	0.673632
45	H	0.035826	0.315152	0.004968
46	O	0.133422	0.318297	0.005441
47	H	0.139772	0.321733	0.704197
48	H	0.035853	0.22384	0.674314
49	N	0.118411	0.254057	0.965426
50	C	0.100703	0.2496	0.670718
51	C	0.115347	0.246128	0.710696
52	H	0.106547	0.247815	0.74166
53	C	0.118466	0.369225	0.962634
54	C	0.143605	0.400743	0.710689
55	N	0.115362	0.370499	0.708424
56	C	0.100658	0.354243	0.669385
57	H	0.112074	0.35656	0.932669
58	C	0.027658	0.765409	0.34003
59	C	0.046964	0.801043	0.339044
60	C	0.082134	0.819107	0.338038
61	C	0.099462	0.801309	0.338369
62	C	0.082146	0.766186	0.005549
63	C	0.046979	0.749089	0.006963
64	H	0.035826	0.815153	0.338301
65	O	0.133421	0.818296	0.338774
66	H	0.139772	0.821732	0.037529
67	H	0.035852	0.723839	0.007647
68	N	0.118412	0.754058	0.298757
69	C	0.100702	0.749599	0.00405
70	C	0.115347	0.746128	0.04403
71	H	0.106546	0.747815	0.074994
72	C	0.118465	0.869224	0.295967
73	C	0.143604	0.900742	0.044023
74	N	0.115361	0.870498	0.041757
75	C	0.100658	0.854245	0.00272
76	H	0.112074	0.856559	0.266001
77	C	0.027658	0.765409	0.673365
78	C	0.046964	0.801043	0.672376
79	C	0.082134	0.819107	0.67137
80	C	0.099462	0.801309	0.671704
81	C	0.082146	0.766186	0.338882
82	C	0.046979	0.749089	0.340296
83	H	0.035826	0.815153	0.671636
84	O	0.133421	0.818296	0.672109
85	H	0.139772	0.821732	0.370862
86	H	0.035852	0.723839	0.340982
87	N	0.118412	0.754058	0.63209
88	C	0.100702	0.749599	0.337384
89	C	0.115347	0.746128	0.377364
90	H	0.106546	0.747815	0.408329
91	C	0.118465	0.869224	0.629302
92	C	0.143604	0.900742	0.377358
93	N	0.115361	0.870498	0.375092
94	C	0.100658	0.854245	0.336051
95	H	0.112074	0.856559	0.599334
96	C	0.027658	0.765409	0.006697
97	C	0.046964	0.801043	0.005711
98	C	0.082134	0.819107	0.004705
99	C	0.099462	0.801309	0.005036
100	C	0.082146	0.766186	0.672217
101	C	0.046979	0.749089	0.673632
102	H	0.035826	0.815153	0.004968
103	O	0.133421	0.818296	0.005441
104	H	0.139772	0.821732	0.704197
105	H	0.035852	0.723839	0.674314
106	N	0.118412	0.754058	0.965426
107	C	0.100702	0.749599	0.670718
108	C	0.115347	0.746128	0.710696
109	H	0.106546	0.747815	0.74166
110	C	0.118465	0.869224	0.962634
111	C	0.143604	0.900742	0.710693
112	N	0.115361	0.870498	0.708424
113	C	0.100658	0.854245	0.669385
114	H	0.112074	0.856559	0.932669
115	C	0.214905	0.249065	0.339108
116	C	0.196832	0.266164	0.338004
117	C	0.214631	0.301292	0.338261
118	H	0.200805	0.223816	0.338315
119	O	0.197638	0.318262	0.338581
120	H	0.194239	0.321253	0.037321
121	H	0.227044	0.197593	0.007887
122	C	0.214668	0.416558	0.338338
123	C	0.196861	0.433873	0.005535
124	C	0.214924	0.469036	0.00702
125	O	0.197693	0.382594	0.338723
126	H	0.227019	0.032616	0.338332
127	H	0.194749	0.376234	0.037474
128	H	0.200798	0.480158	0.007727
129	C	0.146705	0.25233	0.295854
130	N	0.145568	0.248076	0.041731
131	C	0.161685	0.249543	0.002602
132	H	0.15935	0.258575	0.265873
133	N	0.148471	0.397538	0.298792
134	C	0.16172	0.415319	0.00403
135	H	0.154088	0.409586	0.074978
136	C	0.214905	0.249065	0.67244
137	C	0.196832	0.266164	0.671339
138	C	0.214631	0.301292	0.671592
139	H	0.200805	0.223816	0.67165
140	O	0.197638	0.318262	0.671913
141	H	0.194239	0.321253	0.370653
142	H	0.227044	0.197593	0.341221
143	C	0.214668	0.416558	0.67167
144	C	0.196861	0.433873	0.338868
145	C	0.214924	0.469036	0.340354
146	O	0.197693	0.382594	0.672055
147	H	0.227019	0.032616	0.671663
148	H	0.194749	0.376234	0.370808
149	H	0.200798	0.480158	0.341059
150	C	0.146705	0.25233	0.629187
151	N	0.145568	0.248076	0.375065
152	C	0.161685	0.249543	0.335934
153	H	0.15935	0.258575	0.599205
154	N	0.148471	0.397538	0.632128
155	C	0.16172	0.415319	0.337363
156	H	0.154088	0.409586	0.408312
157	C	0.214905	0.249065	0.005775
158	C	0.196832	0.266164	0.004671
159	C	0.214631	0.301292	0.004928
160	H	0.200805	0.223816	0.004985
161	O	0.197638	0.318262	0.005248
162	H	0.194239	0.321253	0.703988
163	H	0.227044	0.197593	0.674553
164	C	0.214668	0.416558	0.005005
165	C	0.196861	0.433873	0.6722
166	C	0.214924	0.469036	0.673689
167	O	0.197693	0.382594	0.00539
168	H	0.227019	0.032616	0.004999
169	H	0.194749	0.376234	0.704143
170	H	0.200798	0.480158	0.674395
171	C	0.146705	0.25233	0.962522
172	N	0.145568	0.248076	0.708397
173	C	0.161685	0.249543	0.669266
174	H	0.15935	0.258575	0.93254
175	N	0.148471	0.397538	0.965459
176	C	0.16172	0.415319	0.670698
177	H	0.154088	0.409586	0.741647
178	C	0.214904	0.749064	0.339108
179	C	0.196832	0.766163	0.338004
180	C	0.21463	0.801291	0.338261
181	H	0.200805	0.723817	0.338315
182	O	0.197637	0.818261	0.338581
183	H	0.19424	0.821254	0.037321
184	H	0.227045	0.697594	0.007887
185	C	0.214667	0.916557	0.338338
186	C	0.196861	0.933872	0.005535
187	C	0.214923	0.969035	0.00702
188	O	0.197693	0.882595	0.338723
189	H	0.227019	0.532617	0.338332
190	H	0.194749	0.876233	0.037474
191	H	0.200798	0.980157	0.007727
192	C	0.146704	0.752329	0.295854
193	N	0.145567	0.748076	0.041731
194	C	0.161685	0.749542	0.002602
195	H	0.159349	0.758574	0.265873
196	N	0.14847	0.897537	0.298792
197	C	0.161719	0.915318	0.00403
198	H	0.154087	0.909585	0.074978
199	C	0.214904	0.749064	0.67244
200	C	0.196832	0.766163	0.671339
201	C	0.21463	0.801291	0.671592
202	H	0.200805	0.723817	0.67165
203	O	0.197637	0.818261	0.671913
204	H	0.19424	0.821254	0.370653
205	H	0.227045	0.697594	0.341221
206	C	0.214667	0.916557	0.67167
207	C	0.196861	0.933872	0.338868
208	C	0.214923	0.969035	0.340354
209	O	0.197693	0.882595	0.672055
210	H	0.227019	0.532617	0.671663
211	H	0.194749	0.876233	0.370808
212	H	0.200798	0.980157	0.341059
213	C	0.146704	0.752329	0.629187
214	N	0.145567	0.748076	0.375065
215	C	0.161685	0.749542	0.335934
216	H	0.159349	0.758574	0.599205
217	N	0.14847	0.897537	0.632128
218	C	0.161719	0.915318	0.337363
219	H	0.154087	0.909585	0.408312
220	C	0.214904	0.749064	0.005775
221	C	0.196832	0.766163	0.004671
222	C	0.21463	0.801291	0.004928
223	H	0.200805	0.723817	0.004985
224	O	0.197637	0.818261	0.005248
225	H	0.19424	0.821254	0.703988
226	H	0.227045	0.697594	0.674553
227	C	0.214667	0.916557	0.005005
228	C	0.196861	0.933872	0.6722
229	C	0.214923	0.969035	0.673689
230	O	0.197693	0.882595	0.00539
231	H	0.227019	0.532617	0.004999
232	H	0.194749	0.876233	0.704143
233	H	0.200798	0.980157	0.674395
234	C	0.146704	0.752329	0.962522
235	N	0.145567	0.748076	0.708397
236	C	0.161685	0.749542	0.669266
237	H	0.159349	0.758574	0.93254
238	N	0.14847	0.897537	0.965459
239	C	0.161719	0.915318	0.670698
240	H	0.154087	0.909585	0.741647
241	C	0.250539	0.2654	0.340141
242	C	0.249753	0.319105	0.005535
243	C	0.266851	0.301041	0.007081
244	C	0.268598	0.247362	0.340121
245	C	0.252291	0.211721	0.007074
246	C	0.269393	0.193662	0.00541
247	C	0.304515	0.21148	0.338021
248	C	0.304231	0.263701	0.339044
249	H	0.292097	0.315166	0.007865
250	C	0.250563	0.488359	0.340101
251	C	0.266895	0.469056	0.339098
252	C	0.249795	0.433885	0.338048
253	H	0.292145	0.480201	0.338362
254	C	0.268599	0.024456	0.340111
255	C	0.304237	0.043779	0.007047
256	C	0.304496	0.096259	0.338429
257	C	0.26937	0.078933	0.338122
258	C	0.252268	0.04376	0.339115
259	C	0.263554	0.397535	0.295975
260	N	0.261826	0.36751	0.298799
261	C	0.26634	0.354248	0.004036
262	C	0.269902	0.372372	0.044028
263	N	0.267935	0.400633	0.041761
264	C	0.2664	0.415351	0.002727
265	H	0.257289	0.403935	0.266009
266	H	0.268255	0.361887	0.074982
267	C	0.255537	0.11519	0.295952
268	N	0.25726	0.145218	0.298631
269	C	0.252812	0.158508	0.003861
270	C	0.24931	0.140524	0.043968
271	N	0.251294	0.112268	0.041774
272	C	0.252766	0.097468	0.002777
273	H	0.261739	0.108707	0.266
274	H	0.251001	0.151081	0.074882
275	C	0.250539	0.2654	0.673476
276	C	0.249753	0.319105	0.338868
277	C	0.266851	0.301041	0.340415
278	C	0.268598	0.247362	0.673456
279	C	0.252291	0.211721	0.340408
280	C	0.269393	0.193662	0.338743
281	C	0.304515	0.21148	0.671356
282	C	0.304231	0.263701	0.672376
283	H	0.292097	0.315166	0.341198
284	C	0.250563	0.488359	0.673432
285	C	0.266895	0.469056	0.67243
286	C	0.249795	0.433885	0.67138
287	H	0.292145	0.480201	0.671697
288	C	0.268599	0.024456	0.673446
289	C	0.304237	0.043779	0.340381
290	C	0.304496	0.096259	0.671765
291	C	0.26937	0.078933	0.671454
292	C	0.252268	0.04376	0.67245
293	C	0.263554	0.397535	0.629309
294	N	0.261826	0.36751	0.632134
295	C	0.26634	0.354248	0.337368
296	C	0.269902	0.372372	0.377361
297	N	0.267935	0.400633	0.375096
298	C	0.2664	0.415351	0.336058
299	H	0.257289	0.403935	0.599344
300	H	0.268255	0.361887	0.408315
301	C	0.255537	0.11519	0.629285
302	N	0.25726	0.145218	0.631966
303	C	0.252812	0.158508	0.337193
304	C	0.24931	0.140524	0.377304
305	N	0.251294	0.112268	0.375109
306	C	0.252766	0.097468	0.336109
307	H	0.261739	0.108707	0.599334
308	H	0.251001	0.151081	0.408217
309	C	0.250539	0.2654	0.006808
310	C	0.249753	0.319105	0.672204
311	C	0.266851	0.301041	0.67375
312	C	0.268598	0.247362	0.006788
313	C	0.252291	0.211721	0.673743
314	C	0.269393	0.193662	0.672079
315	C	0.304515	0.21148	0.004688
316	C	0.304231	0.263701	0.005711
317	H	0.292097	0.315166	0.674533
318	C	0.250563	0.488359	0.006766
319	C	0.266895	0.469056	0.005765
320	C	0.249795	0.433885	0.004715
321	H	0.292145	0.480201	0.005029
322	C	0.268599	0.024456	0.006778
323	C	0.304237	0.043779	0.673716
324	C	0.304496	0.096259	0.005096
325	C	0.26937	0.078933	0.004789
326	C	0.252268	0.04376	0.005785
327	C	0.263554	0.397535	0.962644
328	N	0.261826	0.36751	0.965466
329	C	0.26634	0.354248	0.670701
330	C	0.269902	0.372372	0.710696
331	N	0.267935	0.400633	0.708428
332	C	0.2664	0.415351	0.669391
333	H	0.257289	0.403935	0.932675
334	H	0.268255	0.361887	0.74165
335	C	0.255537	0.11519	0.96262
336	N	0.25726	0.145218	0.965297
337	C	0.252812	0.158508	0.670526
338	C	0.24931	0.140524	0.710635
339	N	0.251294	0.112268	0.708441
340	C	0.252766	0.097468	0.669442
341	H	0.261739	0.108707	0.932669
342	H	0.251001	0.151081	0.741549
343	C	0.250538	0.765399	0.340141
344	C	0.249752	0.819104	0.005535
345	C	0.26685	0.80104	0.007081
346	C	0.268598	0.747362	0.340121
347	C	0.252291	0.711722	0.007074
348	C	0.269393	0.693662	0.00541
349	C	0.304514	0.71148	0.338021
350	C	0.30423	0.7637	0.339044
351	H	0.292097	0.815168	0.007865
352	C	0.250561	0.988358	0.340101
353	C	0.266895	0.969055	0.339098
354	C	0.249794	0.933884	0.338048
355	H	0.292144	0.9802	0.338362
356	C	0.268598	0.524455	0.340111
357	C	0.304237	0.543779	0.007047
358	C	0.304496	0.59626	0.338429
359	C	0.269369	0.578932	0.338122
360	C	0.252267	0.543759	0.339115
361	C	0.263553	0.897535	0.295975
362	N	0.261826	0.867512	0.298799
363	C	0.266339	0.854248	0.004036
364	C	0.269901	0.872371	0.044028
365	N	0.267935	0.900635	0.041761
366	C	0.266401	0.915352	0.002727
367	H	0.257288	0.903934	0.266009
368	H	0.268254	0.861886	0.074982
369	C	0.255536	0.61519	0.295952
370	N	0.25726	0.645217	0.298631
371	C	0.252811	0.658507	0.003861
372	C	0.24931	0.640525	0.043968
373	N	0.251294	0.612269	0.041774
374	C	0.252767	0.597469	0.002777
375	H	0.261739	0.608708	0.266
376	H	0.251001	0.651082	0.074882
377	C	0.250538	0.765399	0.673476
378	C	0.249752	0.819104	0.338868
379	C	0.26685	0.80104	0.340415
380	C	0.268598	0.747362	0.673456
381	C	0.252291	0.711722	0.340408
382	C	0.269393	0.693662	0.338743
383	C	0.304514	0.71148	0.671356
384	C	0.30423	0.7637	0.672376
385	H	0.292097	0.815168	0.341198
386	C	0.250561	0.988358	0.673432
387	C	0.266895	0.969055	0.67243
388	C	0.249794	0.933884	0.67138
389	H	0.292144	0.9802	0.671697
390	C	0.268598	0.524455	0.673446
391	C	0.304237	0.543779	0.340381
392	C	0.304496	0.59626	0.671765
393	C	0.269369	0.578932	0.671454
394	C	0.252267	0.543759	0.67245
395	C	0.263553	0.897535	0.629309
396	N	0.261826	0.867512	0.632134
397	C	0.266339	0.854248	0.337368
398	C	0.269901	0.872371	0.377361
399	N	0.267935	0.900635	0.375096
400	C	0.266401	0.915352	0.336058
401	H	0.257288	0.903934	0.599344
402	H	0.268254	0.861886	0.408315
403	C	0.255536	0.61519	0.629285
404	N	0.25726	0.645217	0.631966
405	C	0.252811	0.658507	0.337193
406	C	0.24931	0.640525	0.377304
407	N	0.251294	0.612269	0.375109
408	C	0.252767	0.597469	0.336109
409	H	0.261739	0.608708	0.599334
410	H	0.251001	0.651082	0.408217
411	C	0.250538	0.765399	0.006808
412	C	0.249752	0.819104	0.672204
413	C	0.26685	0.80104	0.67375
414	C	0.268598	0.747362	0.006788
415	C	0.252291	0.711722	0.673743
416	C	0.269393	0.693662	0.672079
417	C	0.304514	0.71148	0.004688
418	C	0.30423	0.7637	0.005711
419	H	0.292097	0.815168	0.674533
420	C	0.250561	0.988358	0.006766
421	C	0.266895	0.969055	0.005765
422	C	0.249794	0.933884	0.004715
423	H	0.292144	0.9802	0.005029
424	C	0.268598	0.524455	0.006778
425	C	0.304237	0.543779	0.673716
426	C	0.304496	0.59626	0.005096
427	C	0.269369	0.578932	0.004789
428	C	0.252267	0.543759	0.005785
429	C	0.263553	0.897535	0.962644
430	N	0.261826	0.867512	0.965466
431	C	0.266339	0.854248	0.670701
432	C	0.269901	0.872371	0.710696
433	N	0.267935	0.900635	0.708428
434	C	0.266401	0.915352	0.669391
435	H	0.257288	0.903934	0.932675
436	H	0.268254	0.861886	0.74165
437	C	0.255536	0.61519	0.96262
438	N	0.25726	0.645217	0.965297
439	C	0.252811	0.658507	0.670526
440	C	0.24931	0.640525	0.710635
441	N	0.251294	0.612269	0.708441
442	C	0.252767	0.597469	0.669442
443	H	0.261739	0.608708	0.932669
444	H	0.251001	0.651082	0.741549
445	C	0.491563	0.247364	0.340053
446	C	0.472247	0.263688	0.006984
447	C	0.437081	0.246598	0.005731
448	C	0.419755	0.211476	0.338598
449	C	0.437077	0.193671	0.338176
450	C	0.472251	0.21173	0.339101
451	O	0.385795	0.194501	0.33901
452	H	0.483389	0.19762	0.338284
453	H	0.379446	0.191038	0.037764
454	H	0.483377	0.288938	0.007613
455	C	0.322304	0.246606	0.337893
456	O	0.321513	0.194516	0.338203
457	H	0.318331	0.288951	0.338308
458	H	0.324945	0.191489	0.036919
459	C	0.322302	0.078943	0.005603
460	O	0.321472	0.13022	0.338824
461	H	0.32443	0.136575	0.037577
462	H	0.318362	0.032656	0.007748
463	C	0.372693	0.2606	0.295832
464	N	0.400993	0.258896	0.298835
465	C	0.418545	0.263203	0.004229
466	C	0.403696	0.26646	0.044123
467	N	0.373482	0.264497	0.041568
468	C	0.357422	0.263213	0.002406
469	H	0.360182	0.25446	0.265751
470	H	0.412326	0.264616	0.075139
471	C	0.400733	0.143579	0.296076
472	N	0.370711	0.11528	0.298882
473	C	0.357446	0.097493	0.004111
474	C	0.375556	0.112046	0.044113
475	N	0.403813	0.142275	0.041864
476	C	0.418539	0.158535	0.002838
477	H	0.40714	0.156254	0.266117
478	H	0.365063	0.103198	0.075062
479	C	0.491563	0.247364	0.673388
480	C	0.472247	0.263688	0.340317
481	C	0.437081	0.246598	0.339064
482	C	0.419755	0.211476	0.671933
483	C	0.437077	0.193671	0.671511
484	C	0.472251	0.21173	0.672436
485	O	0.385795	0.194501	0.672342
486	H	0.483389	0.19762	0.671616
487	H	0.379446	0.191038	0.371099
488	H	0.483377	0.288938	0.340945
489	C	0.322304	0.246606	0.671228
490	O	0.321513	0.194516	0.671538
491	H	0.318331	0.288951	0.67164
492	H	0.324945	0.191489	0.370251
493	C	0.322302	0.078943	0.338936
494	O	0.321472	0.13022	0.672156
495	H	0.32443	0.136575	0.37091
496	H	0.318362	0.032656	0.34108
497	C	0.372693	0.2606	0.629167
498	N	0.400993	0.258896	0.632168
499	C	0.418545	0.263203	0.33756
500	C	0.403696	0.26646	0.377456
501	N	0.373482	0.264497	0.374903
502	C	0.357422	0.263213	0.335739
503	H	0.360182	0.25446	0.599084
504	H	0.412326	0.264616	0.408474
505	C	0.400733	0.143579	0.62941
506	N	0.370711	0.11528	0.632215
507	C	0.357446	0.097493	0.337442
508	C	0.375556	0.112046	0.377445
509	N	0.403813	0.142275	0.375197
510	C	0.418539	0.158535	0.33617
511	H	0.40714	0.156254	0.599452
512	H	0.365063	0.103198	0.408396
513	C	0.491563	0.247364	0.006721
514	C	0.472247	0.263688	0.673652
515	C	0.437081	0.246598	0.672396
516	C	0.419755	0.211476	0.005265
517	C	0.437077	0.193671	0.004843
518	C	0.472251	0.21173	0.005768
519	O	0.385795	0.194501	0.005677
520	H	0.483389	0.19762	0.004951
521	H	0.379446	0.191038	0.70443
522	H	0.483377	0.288938	0.67428
523	C	0.322304	0.246606	0.00456
524	O	0.321513	0.194516	0.00487
525	H	0.318331	0.288951	0.004975
526	H	0.324945	0.191489	0.703586
527	C	0.322302	0.078943	0.672271
528	O	0.321472	0.13022	0.005491
529	H	0.32443	0.136575	0.704245
530	H	0.318362	0.032656	0.674415
531	C	0.372693	0.2606	0.962499
532	N	0.400993	0.258896	0.965503
533	C	0.418545	0.263203	0.670894
534	C	0.403696	0.26646	0.710791
535	N	0.373482	0.264497	0.708235
536	C	0.357422	0.263213	0.669071
537	H	0.360182	0.25446	0.932419
538	H	0.412326	0.264616	0.741806
539	C	0.400733	0.143579	0.962742
540	N	0.370711	0.11528	0.96555
541	C	0.357446	0.097493	0.670775
542	C	0.375556	0.112046	0.710781
543	N	0.403813	0.142275	0.708532
544	C	0.418539	0.158535	0.669503
545	H	0.40714	0.156254	0.932783
546	H	0.365063	0.103198	0.741728
547	C	0.491562	0.747362	0.340053
548	C	0.472249	0.76369	0.006984
549	C	0.437082	0.746599	0.005731
550	C	0.419755	0.711475	0.338598
551	C	0.437077	0.69367	0.338176
552	C	0.47225	0.711729	0.339101
553	O	0.385795	0.694501	0.33901
554	H	0.483388	0.697619	0.338284
555	H	0.379446	0.691037	0.037764
556	H	0.483376	0.788938	0.007612
557	C	0.322304	0.746606	0.337893
558	O	0.321514	0.694516	0.338203
559	H	0.31833	0.78895	0.338308
560	H	0.324946	0.69149	0.036918
561	C	0.322302	0.578942	0.005603
562	O	0.321472	0.630221	0.338824
563	H	0.324431	0.636576	0.037577
564	H	0.318363	0.532657	0.007748
565	C	0.372691	0.7606	0.295832
566	N	0.400994	0.758898	0.298835
567	C	0.418545	0.763205	0.004229
568	C	0.403695	0.766462	0.044123
569	N	0.373482	0.764499	0.041568
570	C	0.357421	0.763212	0.002406
571	H	0.360183	0.754461	0.265751
572	H	0.412326	0.764615	0.075139
573	C	0.400733	0.643578	0.296076
574	N	0.370711	0.615279	0.298882
575	C	0.357445	0.597494	0.004111
576	C	0.375555	0.612045	0.044113
577	N	0.403813	0.642274	0.041864
578	C	0.418539	0.658534	0.002838
579	H	0.407139	0.656252	0.266117
580	H	0.365064	0.603199	0.075062
581	C	0.491562	0.747362	0.673388
582	C	0.472249	0.76369	0.340317
583	C	0.437082	0.746599	0.339064
584	C	0.419755	0.711475	0.671933
585	C	0.437077	0.69367	0.671511
586	C	0.47225	0.711729	0.672436
587	O	0.385795	0.694501	0.672342
588	H	0.483388	0.697619	0.671616
589	H	0.379446	0.691037	0.371099
590	H	0.483376	0.788938	0.340945
591	C	0.322304	0.746606	0.671228
592	O	0.321514	0.694516	0.671538
593	H	0.31833	0.78895	0.67164
594	H	0.324946	0.69149	0.370251
595	C	0.322302	0.578942	0.338936
596	O	0.321472	0.630221	0.672156
597	H	0.324431	0.636576	0.37091
598	H	0.318363	0.532657	0.34108
599	C	0.372691	0.7606	0.629167
600	N	0.400994	0.758898	0.632168
601	C	0.418545	0.763205	0.33756
602	C	0.403695	0.766462	0.377456
603	N	0.373482	0.764499	0.374903
604	C	0.357421	0.763212	0.335739
605	H	0.360183	0.754461	0.599084
606	H	0.412326	0.764615	0.408474
607	C	0.400733	0.643578	0.62941
608	N	0.370711	0.615279	0.632215
609	C	0.357445	0.597494	0.337442
610	C	0.375555	0.612045	0.377445
611	N	0.403813	0.642274	0.375197
612	C	0.418539	0.658534	0.33617
613	H	0.407139	0.656252	0.599452
614	H	0.365064	0.603199	0.408396
615	C	0.491562	0.747362	0.006721
616	C	0.472249	0.76369	0.673652
617	C	0.437082	0.746599	0.672396
618	C	0.419755	0.711475	0.005265
619	C	0.437077	0.69367	0.004843
620	C	0.47225	0.711729	0.005768
621	O	0.385795	0.694501	0.005677
622	H	0.483388	0.697619	0.004951
623	H	0.379446	0.691037	0.70443
624	H	0.483376	0.788938	0.67428
625	C	0.322304	0.746606	0.00456
626	O	0.321514	0.694516	0.00487
627	H	0.31833	0.78895	0.004975
628	H	0.324946	0.69149	0.703586
629	C	0.322302	0.578942	0.672271
630	O	0.321472	0.630221	0.005491
631	H	0.324431	0.636576	0.704245
632	H	0.318363	0.532657	0.674415
633	C	0.372691	0.7606	0.962499
634	N	0.400994	0.758898	0.965503
635	C	0.418545	0.763205	0.670894
636	C	0.403695	0.766462	0.710791
637	N	0.373482	0.764499	0.708235
638	C	0.357421	0.763212	0.669071
639	H	0.360183	0.754461	0.932419
640	H	0.412326	0.764615	0.741806
641	C	0.400733	0.643578	0.962742
642	N	0.370711	0.615279	0.96555
643	C	0.357445	0.597494	0.670775
644	C	0.375555	0.612045	0.710781
645	N	0.403813	0.642274	0.708532
646	C	0.418539	0.658534	0.669503
647	H	0.407139	0.656252	0.932783
648	H	0.365064	0.603199	0.741728
649	C	0.52766	0.26541	0.34003
650	C	0.546964	0.301041	0.339044
651	C	0.582134	0.319108	0.338038
652	C	0.599461	0.30131	0.338369
653	C	0.582145	0.266186	0.005549
654	C	0.54698	0.24909	0.006963
655	H	0.535826	0.315152	0.338301
656	O	0.633422	0.318297	0.338774
657	C	0.991562	0.247364	0.340053
658	C	0.972248	0.263688	0.006984
659	C	0.93708	0.246598	0.005731
660	C	0.919756	0.211476	0.338598
661	C	0.937078	0.193671	0.338176
662	C	0.97225	0.21173	0.339101
663	O	0.885794	0.194501	0.33901
664	H	0.983388	0.19762	0.338284
665	H	0.639771	0.321733	0.037529
666	H	0.879445	0.191038	0.037764
667	H	0.535853	0.22384	0.007647
668	H	0.983376	0.288938	0.007613
669	C	0.750538	0.2654	0.340141
670	C	0.714905	0.249065	0.339108
671	C	0.696831	0.266164	0.338004
672	C	0.71463	0.301292	0.338261
673	C	0.749753	0.319105	0.005535
674	C	0.76685	0.301041	0.007081
675	H	0.700804	0.223816	0.338315
676	O	0.697636	0.318262	0.338581
677	C	0.768597	0.247362	0.340121
678	C	0.752291	0.211721	0.007074
679	C	0.769393	0.193662	0.00541
680	C	0.804514	0.21148	0.338021
681	C	0.822303	0.246606	0.337893
682	C	0.804229	0.263701	0.339044
683	O	0.821514	0.194516	0.338203
684	H	0.81833	0.288951	0.338308
685	H	0.694238	0.321253	0.037321
686	H	0.824947	0.191489	0.036919
687	H	0.792097	0.315166	0.007865
688	H	0.727044	0.197593	0.007887
689	C	0.750563	0.488359	0.340101
690	C	0.766894	0.469056	0.339098
691	C	0.749796	0.433885	0.338048
692	C	0.714669	0.416558	0.338338
693	C	0.696861	0.433873	0.005535
694	C	0.714925	0.469036	0.00702
695	H	0.792144	0.480201	0.338362
696	O	0.697693	0.382594	0.338723
697	C	0.768598	0.024456	0.340111
698	C	0.804236	0.043779	0.007047
699	C	0.822303	0.078943	0.005603
700	C	0.804495	0.096259	0.338429
701	C	0.769369	0.078933	0.338122
702	C	0.752267	0.04376	0.339115
703	O	0.821471	0.13022	0.338824
704	H	0.727017	0.032616	0.338332
705	H	0.694748	0.376234	0.037474
706	H	0.824431	0.136575	0.037577
707	H	0.700797	0.480158	0.007727
708	H	0.818363	0.032656	0.007748
709	C	0.646706	0.25233	0.295854
710	N	0.618412	0.254057	0.298757
711	C	0.600701	0.2496	0.00405
712	C	0.615346	0.246128	0.04403
713	N	0.645568	0.248076	0.041731
714	C	0.661685	0.249543	0.002602
715	H	0.659348	0.258575	0.265873
716	H	0.606547	0.247815	0.074995
717	C	0.763553	0.397535	0.295975
718	N	0.761826	0.36751	0.298799
719	C	0.766339	0.354248	0.004036
720	C	0.7699	0.372372	0.044028
721	N	0.767934	0.400633	0.041761
722	C	0.7664	0.415351	0.002727
723	H	0.757289	0.403935	0.266009
724	H	0.768254	0.361887	0.074982
725	C	0.618466	0.369225	0.295967
726	N	0.648472	0.397538	0.298792
727	C	0.661719	0.415319	0.00403
728	C	0.643605	0.400743	0.044023
729	N	0.61536	0.370499	0.041757
730	C	0.600658	0.354243	0.00272
731	H	0.612073	0.35656	0.266001
732	H	0.654088	0.409586	0.074978
733	C	0.872692	0.2606	0.295832
734	N	0.900992	0.258896	0.298835
735	C	0.918544	0.263203	0.004229
736	C	0.903695	0.26646	0.044123
737	N	0.873481	0.264497	0.041568
738	C	0.857421	0.263213	0.002406
739	H	0.860183	0.25446	0.265751
740	H	0.912327	0.264616	0.075139
741	C	0.755537	0.11519	0.295952
742	N	0.75726	0.145218	0.298631
743	C	0.752811	0.158508	0.003861
744	C	0.74931	0.140524	0.043968
745	N	0.751294	0.112268	0.041774
746	C	0.752765	0.097468	0.002777
747	H	0.761738	0.108707	0.266
748	H	0.751001	0.151081	0.074882
749	C	0.900732	0.143579	0.296076
750	N	0.87071	0.11528	0.298882
751	C	0.857445	0.097493	0.004111
752	C	0.875555	0.112046	0.044113
753	N	0.903814	0.142275	0.041864
754	C	0.918538	0.158535	0.002838
755	H	0.907139	0.156254	0.266117
756	H	0.865064	0.103198	0.075062
757	C	0.52766	0.26541	0.673365
758	C	0.546964	0.301041	0.672376
759	C	0.582134	0.319108	0.67137
760	C	0.599461	0.30131	0.671704
761	C	0.582145	0.266186	0.338882
762	C	0.54698	0.24909	0.340296
763	H	0.535826	0.315152	0.671636
764	O	0.633422	0.318297	0.672109
765	C	0.991562	0.247364	0.673388
766	C	0.972248	0.263688	0.340317
767	C	0.93708	0.246598	0.339064
768	C	0.919756	0.211476	0.671933
769	C	0.937078	0.193671	0.671511
770	C	0.97225	0.21173	0.672436
771	O	0.885794	0.194501	0.672342
772	H	0.983388	0.19762	0.671616
773	H	0.639771	0.321733	0.370862
774	H	0.879445	0.191038	0.371099
775	H	0.535853	0.22384	0.340982
776	H	0.983376	0.288938	0.340945
777	C	0.750538	0.2654	0.673476
778	C	0.714905	0.249065	0.67244
779	C	0.696831	0.266164	0.671339
780	C	0.71463	0.301292	0.671592
781	C	0.749753	0.319105	0.338868
782	C	0.76685	0.301041	0.340415
783	H	0.700804	0.223816	0.67165
784	O	0.697636	0.318262	0.671913
785	C	0.768597	0.247362	0.673456
786	C	0.752291	0.211721	0.340408
787	C	0.769393	0.193662	0.338743
788	C	0.804514	0.21148	0.671356
789	C	0.822303	0.246606	0.671228
790	C	0.804229	0.263701	0.672376
791	O	0.821514	0.194516	0.671538
792	H	0.81833	0.288951	0.67164
793	H	0.694238	0.321253	0.370653
794	H	0.824947	0.191489	0.370251
795	H	0.792097	0.315166	0.341198
796	H	0.727044	0.197593	0.341221
797	C	0.750563	0.488359	0.673432
798	C	0.766894	0.469056	0.67243
799	C	0.749796	0.433885	0.67138
800	C	0.714669	0.416558	0.67167
801	C	0.696861	0.433873	0.338868
802	C	0.714925	0.469036	0.340354
803	H	0.792144	0.480201	0.671697
804	O	0.697693	0.382594	0.672055
805	C	0.768598	0.024456	0.673446
806	C	0.804236	0.043779	0.340381
807	C	0.822303	0.078943	0.338936
808	C	0.804495	0.096259	0.671765
809	C	0.769369	0.078933	0.671454
810	C	0.752267	0.04376	0.67245
811	O	0.821471	0.13022	0.672156
812	H	0.727017	0.032616	0.671663
813	H	0.694748	0.376234	0.370808
814	H	0.824431	0.136575	0.37091
815	H	0.700797	0.480158	0.341059
816	H	0.818363	0.032656	0.34108
817	C	0.646706	0.25233	0.629187
818	N	0.618412	0.254057	0.63209
819	C	0.600701	0.2496	0.337384
820	C	0.615346	0.246128	0.377364
821	N	0.645568	0.248076	0.375065
822	C	0.661685	0.249543	0.335934
823	H	0.659348	0.258575	0.599205
824	H	0.606547	0.247815	0.408329
825	C	0.763553	0.397535	0.629309
826	N	0.761826	0.36751	0.632134
827	C	0.766339	0.354248	0.337368
828	C	0.7699	0.372372	0.377361
829	N	0.767934	0.400633	0.375096
830	C	0.7664	0.415351	0.336058
831	H	0.757289	0.403935	0.599344
832	H	0.768254	0.361887	0.408315
833	C	0.618466	0.369225	0.629302
834	N	0.648472	0.397538	0.632128
835	C	0.661719	0.415319	0.337363
836	C	0.643605	0.400743	0.377358
837	N	0.61536	0.370499	0.375092
838	C	0.600658	0.354243	0.336051
839	H	0.612073	0.35656	0.599334
840	H	0.654088	0.409586	0.408312
841	C	0.872692	0.2606	0.629167
842	N	0.900992	0.258896	0.632168
843	C	0.918544	0.263203	0.33756
844	C	0.903695	0.26646	0.377456
845	N	0.873481	0.264497	0.374903
846	C	0.857421	0.263213	0.335739
847	H	0.860183	0.25446	0.599084
848	H	0.912327	0.264616	0.408474
849	C	0.755537	0.11519	0.629285
850	N	0.75726	0.145218	0.631966
851	C	0.752811	0.158508	0.337193
852	C	0.74931	0.140524	0.377304
853	N	0.751294	0.112268	0.375109
854	C	0.752765	0.097468	0.336109
855	H	0.761738	0.108707	0.599334
856	H	0.751001	0.151081	0.408217
857	C	0.900732	0.143579	0.62941
858	N	0.87071	0.11528	0.632215
859	C	0.857445	0.097493	0.337442
860	C	0.875555	0.112046	0.377445
861	N	0.903814	0.142275	0.375197
862	C	0.918538	0.158535	0.33617
863	H	0.907139	0.156254	0.599452
864	H	0.865064	0.103198	0.408396
865	C	0.52766	0.26541	0.006697
866	C	0.546964	0.301041	0.005711
867	C	0.582134	0.319108	0.004705
868	C	0.599461	0.30131	0.005036
869	C	0.582145	0.266186	0.672217
870	C	0.54698	0.24909	0.673632
871	H	0.535826	0.315152	0.004968
872	O	0.633422	0.318297	0.005441
873	C	0.991562	0.247364	0.006721
874	C	0.972248	0.263688	0.673652
875	C	0.93708	0.246598	0.672396
876	C	0.919756	0.211476	0.005265
877	C	0.937078	0.193671	0.004843
878	C	0.97225	0.21173	0.005768
879	O	0.885794	0.194501	0.005677
880	H	0.983388	0.19762	0.004951
881	H	0.639771	0.321733	0.704197
882	H	0.879445	0.191038	0.70443
883	H	0.535853	0.22384	0.674314
884	H	0.983376	0.288938	0.67428
885	C	0.750538	0.2654	0.006808
886	C	0.714905	0.249065	0.005775
887	C	0.696831	0.266164	0.004671
888	C	0.71463	0.301292	0.004928
889	C	0.749753	0.319105	0.672204
890	C	0.76685	0.301041	0.67375
891	H	0.700804	0.223816	0.004985
892	O	0.697636	0.318262	0.005248
893	C	0.768597	0.247362	0.006788
894	C	0.752291	0.211721	0.673743
895	C	0.769393	0.193662	0.672079
896	C	0.804514	0.21148	0.004688
897	C	0.822303	0.246606	0.00456
898	C	0.804229	0.263701	0.005711
899	O	0.821514	0.194516	0.00487
900	H	0.81833	0.288951	0.004975
901	H	0.694238	0.321253	0.703988
902	H	0.824947	0.191489	0.703586
903	H	0.792097	0.315166	0.674533
904	H	0.727044	0.197593	0.674553
905	C	0.750563	0.488359	0.006766
906	C	0.766894	0.469056	0.005765
907	C	0.749796	0.433885	0.004715
908	C	0.714669	0.416558	0.005005
909	C	0.696861	0.433873	0.6722
910	C	0.714925	0.469036	0.673689
911	H	0.792144	0.480201	0.005029
912	O	0.697693	0.382594	0.00539
913	C	0.768598	0.024456	0.006778
914	C	0.804236	0.043779	0.673716
915	C	0.822303	0.078943	0.672271
916	C	0.804495	0.096259	0.005096
917	C	0.769369	0.078933	0.004789
918	C	0.752267	0.04376	0.005785
919	O	0.821471	0.13022	0.005491
920	H	0.727017	0.032616	0.004999
921	H	0.694748	0.376234	0.704143
922	H	0.824431	0.136575	0.704245
923	H	0.700797	0.480158	0.674395
924	H	0.818363	0.032656	0.674415
925	C	0.646706	0.25233	0.962522
926	N	0.618412	0.254057	0.965426
927	C	0.600701	0.2496	0.670718
928	C	0.615346	0.246128	0.710696
929	N	0.645568	0.248076	0.708397
930	C	0.661685	0.249543	0.669266
931	H	0.659348	0.258575	0.93254
932	H	0.606547	0.247815	0.74166
933	C	0.763553	0.397535	0.962644
934	N	0.761826	0.36751	0.965466
935	C	0.766339	0.354248	0.670701
936	C	0.7699	0.372372	0.710696
937	N	0.767934	0.400633	0.708428
938	C	0.7664	0.415351	0.669391
939	H	0.757289	0.403935	0.932675
940	H	0.768254	0.361887	0.74165
941	C	0.618466	0.369225	0.962634
942	N	0.648472	0.397538	0.965459
943	C	0.661719	0.415319	0.670698
944	C	0.643605	0.400743	0.710689
945	N	0.61536	0.370499	0.708424
946	C	0.600658	0.354243	0.669385
947	H	0.612073	0.35656	0.932669
948	H	0.654088	0.409586	0.741647
949	C	0.872692	0.2606	0.962499
950	N	0.900992	0.258896	0.965503
951	C	0.918544	0.263203	0.670894
952	C	0.903695	0.26646	0.710791
953	N	0.873481	0.264497	0.708235
954	C	0.857421	0.263213	0.669071
955	H	0.860183	0.25446	0.932419
956	H	0.912327	0.264616	0.741806
957	C	0.755537	0.11519	0.96262
958	N	0.75726	0.145218	0.965297
959	C	0.752811	0.158508	0.670526
960	C	0.74931	0.140524	0.710635
961	N	0.751294	0.112268	0.708441
962	C	0.752765	0.097468	0.669442
963	H	0.761738	0.108707	0.932669
964	H	0.751001	0.151081	0.741549
965	C	0.900732	0.143579	0.962742
966	N	0.87071	0.11528	0.96555
967	C	0.857445	0.097493	0.670775
968	C	0.875555	0.112046	0.710781
969	N	0.903814	0.142275	0.708532
970	C	0.918538	0.158535	0.669503
971	H	0.907139	0.156254	0.932783
972	H	0.865064	0.103198	0.741728
973	C	0.527658	0.765409	0.34003
974	C	0.546964	0.801043	0.339044
975	C	0.582133	0.819107	0.338038
976	C	0.599461	0.801309	0.338369
977	C	0.582145	0.766186	0.005549
978	C	0.546979	0.749089	0.006963
979	H	0.535826	0.815153	0.338301
980	O	0.633422	0.818296	0.338774
981	C	0.991562	0.747362	0.340053
982	C	0.972249	0.76369	0.006984
983	C	0.93708	0.746599	0.005731
984	C	0.919756	0.711475	0.338598
985	C	0.937077	0.69367	0.338176
986	C	0.97225	0.711729	0.339101
987	O	0.885794	0.694501	0.33901
988	H	0.983388	0.697619	0.338284
989	H	0.639771	0.821732	0.037529
990	H	0.879445	0.691037	0.037764
991	H	0.535852	0.723839	0.007647
992	H	0.983375	0.788938	0.007612
993	C	0.750537	0.765399	0.340141
994	C	0.714905	0.749064	0.339108
995	C	0.696831	0.766163	0.338004
996	C	0.71463	0.801291	0.338261
997	C	0.749752	0.819104	0.005535
998	C	0.766849	0.80104	0.007081
999	H	0.700805	0.723817	0.338315
1000	O	0.697636	0.818261	0.338581
1001	C	0.768597	0.747362	0.340121
1002	C	0.752291	0.711722	0.007074
1003	C	0.769393	0.693662	0.00541
1004	C	0.804514	0.71148	0.338021
1005	C	0.822303	0.746606	0.337893
1006	C	0.804229	0.7637	0.339044
1007	O	0.821512	0.694516	0.338203
1008	H	0.81833	0.78895	0.338308
1009	H	0.694239	0.821254	0.037321
1010	H	0.824947	0.69149	0.036918
1011	H	0.792096	0.815168	0.007865
1012	H	0.727045	0.697594	0.007887
1013	C	0.750562	0.988358	0.340101
1014	C	0.766894	0.969055	0.339098
1015	C	0.749793	0.933884	0.338048
1016	C	0.714668	0.916557	0.338338
1017	C	0.69686	0.933872	0.005535
1018	C	0.714922	0.969035	0.00702
1019	H	0.792144	0.9802	0.338362
1020	O	0.697694	0.882595	0.338723
1021	C	0.768598	0.524455	0.340111
1022	C	0.804236	0.543779	0.007047
1023	C	0.822302	0.578942	0.005603
1024	C	0.804496	0.59626	0.338429
1025	C	0.769368	0.578932	0.338122
1026	C	0.752267	0.543759	0.339115
1027	O	0.821472	0.630221	0.338824
1028	H	0.727018	0.532617	0.338332
1029	H	0.694748	0.876233	0.037474
1030	H	0.82443	0.636576	0.037577
1031	H	0.700797	0.980157	0.007727
1032	H	0.818364	0.532657	0.007748
1033	C	0.646705	0.752329	0.295854
1034	N	0.618411	0.754058	0.298757
1035	C	0.600701	0.749599	0.00405
1036	C	0.615346	0.746128	0.04403
1037	N	0.645568	0.748076	0.041731
1038	C	0.661684	0.749542	0.002602
1039	H	0.659348	0.758574	0.265873
1040	H	0.606547	0.747815	0.074994
1041	C	0.763553	0.897535	0.295975
1042	N	0.761826	0.867512	0.298799
1043	C	0.766339	0.854248	0.004036
1044	C	0.7699	0.872371	0.044028
1045	N	0.767935	0.900635	0.041761
1046	C	0.7664	0.915352	0.002727
1047	H	0.757289	0.903934	0.266009
1048	H	0.768253	0.861886	0.074982
1049	C	0.618465	0.869224	0.295967
1050	N	0.64847	0.897537	0.298792
1051	C	0.661719	0.915318	0.00403
1052	C	0.643604	0.900742	0.044023
1053	N	0.61536	0.870498	0.041757
1054	C	0.600658	0.854245	0.00272
1055	H	0.612073	0.856559	0.266001
1056	H	0.654087	0.909585	0.074978
1057	C	0.872691	0.7606	0.295832
1058	N	0.900993	0.758898	0.298835
1059	C	0.918545	0.763205	0.004229
1060	C	0.903696	0.766462	0.044123
1061	N	0.873482	0.764499	0.041568
1062	C	0.85742	0.763212	0.002406
1063	H	0.860184	0.754461	0.265751
1064	H	0.912327	0.764615	0.075139
1065	C	0.755537	0.61519	0.295952
1066	N	0.757259	0.645217	0.298631
1067	C	0.752811	0.658507	0.003861
1068	C	0.74931	0.640525	0.043968
1069	N	0.751294	0.612269	0.041774
1070	C	0.752766	0.597469	0.002777
1071	H	0.761738	0.608708	0.266
1072	H	0.751001	0.651082	0.074882
1073	C	0.900731	0.643578	0.296076
1074	N	0.87071	0.615279	0.298882
1075	C	0.857445	0.597494	0.004111
1076	C	0.875555	0.612045	0.044113
1077	N	0.903814	0.642274	0.041864
1078	C	0.918538	0.658534	0.002838
1079	H	0.907138	0.656252	0.266117
1080	H	0.865062	0.603199	0.075062
1081	C	0.527658	0.765409	0.673365
1082	C	0.546964	0.801043	0.672376
1083	C	0.582133	0.819107	0.67137
1084	C	0.599461	0.801309	0.671704
1085	C	0.582145	0.766186	0.338882
1086	C	0.546979	0.749089	0.340296
1087	H	0.535826	0.815153	0.671636
1088	O	0.633422	0.818296	0.672109
1089	C	0.991562	0.747362	0.673388
1090	C	0.972249	0.76369	0.340317
1091	C	0.93708	0.746599	0.339064
1092	C	0.919756	0.711475	0.671933
1093	C	0.937077	0.69367	0.671511
1094	C	0.97225	0.711729	0.672436
1095	O	0.885794	0.694501	0.672342
1096	H	0.983388	0.697619	0.671616
1097	H	0.639771	0.821732	0.370862
1098	H	0.879445	0.691037	0.371099
1099	H	0.535852	0.723839	0.340982
1100	H	0.983375	0.788938	0.340945
1101	C	0.750537	0.765399	0.673476
1102	C	0.714905	0.749064	0.67244
1103	C	0.696831	0.766163	0.671339
1104	C	0.71463	0.801291	0.671592
1105	C	0.749752	0.819104	0.338868
1106	C	0.766849	0.80104	0.340415
1107	H	0.700805	0.723817	0.67165
1108	O	0.697636	0.818261	0.671913
1109	C	0.768597	0.747362	0.673456
1110	C	0.752291	0.711722	0.340408
1111	C	0.769393	0.693662	0.338743
1112	C	0.804514	0.71148	0.671356
1113	C	0.822303	0.746606	0.671228
1114	C	0.804229	0.7637	0.672376
1115	O	0.821512	0.694516	0.671538
1116	H	0.81833	0.78895	0.67164
1117	H	0.694239	0.821254	0.370653
1118	H	0.824947	0.69149	0.370251
1119	H	0.792096	0.815168	0.341198
1120	H	0.727045	0.697594	0.341221
1121	C	0.750562	0.988358	0.673432
1122	C	0.766894	0.969055	0.67243
1123	C	0.749793	0.933884	0.67138
1124	C	0.714668	0.916557	0.67167
1125	C	0.69686	0.933872	0.338868
1126	C	0.714922	0.969035	0.340354
1127	H	0.792144	0.9802	0.671697
1128	O	0.697694	0.882595	0.672055
1129	C	0.768598	0.524455	0.673446
1130	C	0.804236	0.543779	0.340381
1131	C	0.822302	0.578942	0.338936
1132	C	0.804496	0.59626	0.671765
1133	C	0.769368	0.578932	0.671454
1134	C	0.752267	0.543759	0.67245
1135	O	0.821472	0.630221	0.672156
1136	H	0.727018	0.532617	0.671663
1137	H	0.694748	0.876233	0.370808
1138	H	0.82443	0.636576	0.37091
1139	H	0.700797	0.980157	0.341059
1140	H	0.818364	0.532657	0.34108
1141	C	0.646705	0.752329	0.629187
1142	N	0.618411	0.754058	0.63209
1143	C	0.600701	0.749599	0.337384
1144	C	0.615346	0.746128	0.377364
1145	N	0.645568	0.748076	0.375065
1146	C	0.661684	0.749542	0.335934
1147	H	0.659348	0.758574	0.599205
1148	H	0.606547	0.747815	0.408329
1149	C	0.763553	0.897535	0.629309
1150	N	0.761826	0.867512	0.632134
1151	C	0.766339	0.854248	0.337368
1152	C	0.7699	0.872371	0.377361
1153	N	0.767935	0.900635	0.375096
1154	C	0.7664	0.915352	0.336058
1155	H	0.757289	0.903934	0.599344
1156	H	0.768253	0.861886	0.408315
1157	C	0.618465	0.869224	0.629302
1158	N	0.64847	0.897537	0.632128
1159	C	0.661719	0.915318	0.337363
1160	C	0.643604	0.900742	0.377358
1161	N	0.61536	0.870498	0.375092
1162	C	0.600658	0.854245	0.336051
1163	H	0.612073	0.856559	0.599334
1164	H	0.654087	0.909585	0.408312
1165	C	0.872691	0.7606	0.629167
1166	N	0.900993	0.758898	0.632168
1167	C	0.918545	0.763205	0.33756
1168	C	0.903696	0.766462	0.377456
1169	N	0.873482	0.764499	0.374903
1170	C	0.85742	0.763212	0.335739
1171	H	0.860184	0.754461	0.599084
1172	H	0.912327	0.764615	0.408474
1173	C	0.755537	0.61519	0.629285
1174	N	0.757259	0.645217	0.631966
1175	C	0.752811	0.658507	0.337193
1176	C	0.74931	0.640525	0.377304
1177	N	0.751294	0.612269	0.375109
1178	C	0.752766	0.597469	0.336109
1179	H	0.761738	0.608708	0.599334
1180	H	0.751001	0.651082	0.408217
1181	C	0.900731	0.643578	0.62941
1182	N	0.87071	0.615279	0.632215
1183	C	0.857445	0.597494	0.337442
1184	C	0.875555	0.612045	0.377445
1185	N	0.903814	0.642274	0.375197
1186	C	0.918538	0.658534	0.33617
1187	H	0.907138	0.656252	0.599452
1188	H	0.865062	0.603199	0.408396
1189	C	0.527658	0.765409	0.006697
1190	C	0.546964	0.801043	0.005711
1191	C	0.582133	0.819107	0.004705
1192	C	0.599461	0.801309	0.005036
1193	C	0.582145	0.766186	0.672217
1194	C	0.546979	0.749089	0.673632
1195	H	0.535826	0.815153	0.004968
1196	O	0.633422	0.818296	0.005441
1197	C	0.991562	0.747362	0.006721
1198	C	0.972249	0.76369	0.673652
1199	C	0.93708	0.746599	0.672396
1200	C	0.919756	0.711475	0.005265
1201	C	0.937077	0.69367	0.004843
1202	C	0.97225	0.711729	0.005768
1203	O	0.885794	0.694501	0.005677
1204	H	0.983388	0.697619	0.004951
1205	H	0.639771	0.821732	0.704197
1206	H	0.879445	0.691037	0.70443
1207	H	0.535852	0.723839	0.674314
1208	H	0.983375	0.788938	0.67428
1209	C	0.750537	0.765399	0.006808
1210	C	0.714905	0.749064	0.005775
1211	C	0.696831	0.766163	0.004671
1212	C	0.71463	0.801291	0.004928
1213	C	0.749752	0.819104	0.672204
1214	C	0.766849	0.80104	0.67375
1215	H	0.700805	0.723817	0.004985
1216	O	0.697636	0.818261	0.005248
1217	C	0.768597	0.747362	0.006788
1218	C	0.752291	0.711722	0.673743
1219	C	0.769393	0.693662	0.672079
1220	C	0.804514	0.71148	0.004688
1221	C	0.822303	0.746606	0.00456
1222	C	0.804229	0.7637	0.005711
1223	O	0.821512	0.694516	0.00487
1224	H	0.81833	0.78895	0.004975
1225	H	0.694239	0.821254	0.703988
1226	H	0.824947	0.69149	0.703586
1227	H	0.792096	0.815168	0.674533
1228	H	0.727045	0.697594	0.674553
1229	C	0.750562	0.988358	0.006766
1230	C	0.766894	0.969055	0.005765
1231	C	0.749793	0.933884	0.004715
1232	C	0.714668	0.916557	0.005005
1233	C	0.69686	0.933872	0.6722
1234	C	0.714922	0.969035	0.673689
1235	H	0.792144	0.9802	0.005029
1236	O	0.697694	0.882595	0.00539
1237	C	0.768598	0.524455	0.006778
1238	C	0.804236	0.543779	0.673716
1239	C	0.822302	0.578942	0.672271
1240	C	0.804496	0.59626	0.005096
1241	C	0.769368	0.578932	0.004789
1242	C	0.752267	0.543759	0.005785
1243	O	0.821472	0.630221	0.005491
1244	H	0.727018	0.532617	0.004999
1245	H	0.694748	0.876233	0.704143
1246	H	0.82443	0.636576	0.704245
1247	H	0.700797	0.980157	0.674395
1248	H	0.818364	0.532657	0.674415
1249	C	0.646705	0.752329	0.962522
1250	N	0.618411	0.754058	0.965426
1251	C	0.600701	0.749599	0.670718
1252	C	0.615346	0.746128	0.710696
1253	N	0.645568	0.748076	0.708397
1254	C	0.661684	0.749542	0.669266
1255	H	0.659348	0.758574	0.93254
1256	H	0.606547	0.747815	0.74166
1257	C	0.763553	0.897535	0.962644
1258	N	0.761826	0.867512	0.965466
1259	C	0.766339	0.854248	0.670701
1260	C	0.7699	0.872371	0.710696
1261	N	0.767935	0.900635	0.708428
1262	C	0.7664	0.915352	0.669391
1263	H	0.757289	0.903934	0.932675
1264	H	0.768253	0.861886	0.74165
1265	C	0.618465	0.869224	0.962634
1266	N	0.64847	0.897537	0.965459
1267	C	0.661719	0.915318	0.670698
1268	C	0.643604	0.900742	0.710693
1269	N	0.61536	0.870498	0.708424
1270	C	0.600658	0.854245	0.669385
1271	H	0.612073	0.856559	0.932669
1272	H	0.654087	0.909585	0.741647
1273	C	0.872691	0.7606	0.962499
1274	N	0.900993	0.758898	0.965503
1275	C	0.918545	0.763205	0.670894
1276	C	0.903696	0.766462	0.710791
1277	N	0.873482	0.764499	0.708235
1278	C	0.85742	0.763212	0.669071
1279	H	0.860184	0.754461	0.932419
1280	H	0.912327	0.764615	0.741806
1281	C	0.755537	0.61519	0.96262
1282	N	0.757259	0.645217	0.965297
1283	C	0.752811	0.658507	0.670526
1284	C	0.74931	0.640525	0.710635
1285	N	0.751294	0.612269	0.708441
1286	C	0.752766	0.597469	0.669442
1287	H	0.761738	0.608708	0.932669
1288	H	0.751001	0.651082	0.741549
1289	C	0.900731	0.643578	0.962742
1290	N	0.87071	0.615279	0.96555
1291	C	0.857445	0.597494	0.670775
1292	C	0.875555	0.612045	0.710781
1293	N	0.903814	0.642274	0.708532
1294	C	0.918538	0.658534	0.669503
1295	H	0.907138	0.656252	0.932783
1296	H	0.865062	0.603199	0.741728
