data_C468H360N72O72_2018-02-15_10:32:43
#******************************************
#
# CIF file created by Zeo++
# Zeo++ is an open source package to
# analyze microporous materials
#
#*******************************************

_cell_length_a		43.8389   
_cell_length_b		43.8389   
_cell_length_c		30.1008   
_cell_angle_alpha		90   
_cell_angle_beta		90   
_cell_angle_gamma		120   

_symmetry_space_group_name_H-M		'P1'
_symmetry_Int_Tables_number		1
_symmetry_cell_setting		Monoclinic

loop_
_symmetry_equiv_pos_as_xyz
'+x,+y,+z'

loop_
_atom_site_label
_atom_site_type_symbol
_atom_site_fract_x
_atom_site_fract_y
_atom_site_fract_z
1	C	0.172697	0.367841	0.039199
2	C	0.137325	0.339973	0.039145
3	C	0.127962	0.304009	0.03926
4	C	0.155834	0.29651	0.039164
5	C	0.191798	0.323111	0.372572
6	C	0.199304	0.358485	0.039173
7	H	0.149567	0.270829	0.036444
8	H	0.22498	0.377892	0.036356
9	H	0.117913	0.346242	0.036418
10	C	0.180749	0.403423	0.034884
11	C	0.219327	0.315061	0.36824
12	C	0.092382	0.276476	0.034972
13	O	0.252725	0.341949	0.028638
14	O	0.153866	0.409929	0.028546
15	O	0.085876	0.243079	0.02872
16	C	0.318958	0.127994	0.954859
17	C	0.355284	0.153459	0.954467
18	C	0.367842	0.19014	0.954839
19	C	0.342364	0.200989	0.954487
20	C	0.305681	0.176872	0.288142
21	C	0.29483	0.140545	0.954464
22	H	0.350898	0.227226	0.957404
23	H	0.26859	0.122847	0.957368
24	H	0.372985	0.144929	0.957437
25	C	0.307712	0.091793	0.961547
26	C	0.280719	0.188108	0.294837
27	C	0.40403	0.215098	0.96159
28	O	0.246535	0.163225	0.968444
29	O	0.332595	0.082488	0.96847
30	O	0.413328	0.249282	0.96853
31	C	0.270502	0.236477	0.314074
32	C	0.248849	0.221032	0.018416
33	C	0.230888	0.236196	0.039873
34	C	0.234624	0.268517	0.023508
35	C	0.257321	0.284452	0.319964
36	H	0.247228	0.198871	0.031826
37	C	0.275358	0.269246	0.299738
38	H	0.259497	0.306393	0.305174
39	H	0.290651	0.281423	0.272512
40	C	0.209513	0.218178	0.080072
41	H	0.211717	0.195445	0.09029
42	H	0.181734	0.208804	0.073527
43	H	0.21822	0.236556	0.107952
44	N	0.288404	0.222352	0.29341
45	H	0.307935	0.238082	0.27431
46	N	0.214827	0.282137	0.040339
47	H	0.194964	0.266525	0.058735
48	C	0.259347	0.033193	0.314071
49	C	0.27478	0.026979	0.01842
50	C	0.259622	0.493841	0.03985
51	C	0.227304	0.465263	0.023476
52	C	0.211375	0.472032	0.31993
53	H	0.296945	0.047508	0.031833
54	C	0.226592	0.005276	0.299705
55	H	0.189436	0.452272	0.305133
56	H	0.214401	0.008399	0.272499
57	C	0.277641	0.490483	0.080049
58	H	0.300363	0.515406	0.090275
59	H	0.287012	0.472072	0.073496
60	H	0.259253	0.480798	0.107928
61	N	0.273472	0.065226	0.293423
62	H	0.257747	0.06903	0.274318
63	N	0.213677	0.431843	0.040301
64	H	0.229287	0.427589	0.058699
65	C	0.462625	0.225322	0.314138
66	C	0.468831	0.246959	0.018494
67	C	0.00196	0.264926	0.039939
68	C	0.030533	0.26116	0.023604
69	C	0.023761	0.238435	0.320086
70	H	0.448301	0.248607	0.031892
71	C	0.490545	0.22049	0.299778
72	H	0.043538	0.236305	0.305249
73	H	0.48742	0.205162	0.272586
74	C	0.005332	0.286325	0.080121
75	H	0.980393	0.284133	0.090337
76	H	0.023737	0.314097	0.073554
77	H	0.014999	0.277627	0.108007
78	N	0.430601	0.207431	0.293461
79	H	0.426804	0.187911	0.274341
80	N	0.06396	0.28098	0.040397
81	H	0.068219	0.300862	0.058762
82	C	0.172697	0.367841	0.372532
83	C	0.137325	0.339973	0.372479
84	C	0.127962	0.304009	0.372592
85	C	0.155834	0.29651	0.372496
86	C	0.191798	0.323111	0.705902
87	C	0.199304	0.358485	0.372505
88	H	0.149567	0.270829	0.369778
89	H	0.22498	0.377892	0.369688
90	H	0.117913	0.346242	0.369751
91	C	0.180749	0.403423	0.368217
92	C	0.219327	0.315061	0.701574
93	C	0.092382	0.276476	0.368303
94	O	0.252725	0.341949	0.361971
95	O	0.153866	0.409929	0.361878
96	O	0.085876	0.243079	0.362054
97	C	0.318958	0.127994	0.288194
98	C	0.355284	0.153459	0.287803
99	C	0.367842	0.19014	0.288175
100	C	0.342364	0.200989	0.28782
101	C	0.305681	0.176872	0.621476
102	C	0.29483	0.140545	0.287798
103	H	0.350898	0.227226	0.29074
104	H	0.26859	0.122847	0.290703
105	H	0.372985	0.144929	0.290773
106	C	0.307712	0.091793	0.29488
107	C	0.280719	0.188108	0.62817
108	C	0.40403	0.215098	0.294925
109	O	0.246535	0.163225	0.301778
110	O	0.332595	0.082488	0.301805
111	O	0.413328	0.249282	0.301863
112	C	0.270502	0.236477	0.647409
113	C	0.248849	0.221032	0.351749
114	C	0.230888	0.236196	0.373206
115	C	0.234624	0.268517	0.356841
116	C	0.257321	0.284452	0.653296
117	H	0.247228	0.198871	0.36516
118	C	0.275358	0.269246	0.63307
119	H	0.259497	0.306393	0.638505
120	H	0.290651	0.281423	0.605845
121	C	0.209513	0.218178	0.413405
122	H	0.211717	0.195445	0.423624
123	H	0.181734	0.208804	0.40686
124	H	0.21822	0.236556	0.441284
125	N	0.288404	0.222352	0.626742
126	H	0.307935	0.238082	0.607642
127	N	0.214827	0.282137	0.373672
128	H	0.194964	0.266525	0.392066
129	C	0.259347	0.033193	0.647405
130	C	0.27478	0.026979	0.351752
131	C	0.259622	0.493841	0.373183
132	C	0.227304	0.465263	0.356808
133	C	0.211375	0.472032	0.653262
134	H	0.296945	0.047508	0.365167
135	C	0.226592	0.005276	0.633037
136	H	0.189436	0.452272	0.638465
137	H	0.214401	0.008399	0.605832
138	C	0.277641	0.490483	0.413382
139	H	0.300363	0.515406	0.423607
140	H	0.287012	0.472072	0.40683
141	H	0.259253	0.480798	0.441261
142	N	0.273472	0.065226	0.626755
143	H	0.257747	0.06903	0.607649
144	N	0.213677	0.431843	0.373635
145	H	0.229287	0.427589	0.392033
146	C	0.462625	0.225322	0.647472
147	C	0.468831	0.246959	0.351828
148	C	0.00196	0.264926	0.373273
149	C	0.030533	0.26116	0.356938
150	C	0.023761	0.238435	0.653419
151	H	0.448301	0.248607	0.365223
152	C	0.490545	0.22049	0.63311
153	H	0.043538	0.236305	0.638582
154	H	0.48742	0.205162	0.605918
155	C	0.005332	0.286325	0.413455
156	H	0.980393	0.284133	0.42367
157	H	0.023737	0.314097	0.406887
158	H	0.014999	0.277627	0.441341
159	N	0.430601	0.207431	0.626795
160	H	0.426804	0.187911	0.607672
161	N	0.06396	0.28098	0.373731
162	H	0.068219	0.300862	0.392096
163	C	0.172697	0.367841	0.705866
164	C	0.137325	0.339973	0.705809
165	C	0.127962	0.304009	0.705926
166	C	0.155834	0.29651	0.705829
167	C	0.191798	0.323111	0.039238
168	C	0.199304	0.358485	0.705839
169	H	0.149567	0.270829	0.703108
170	H	0.22498	0.377892	0.703022
171	H	0.117913	0.346242	0.703085
172	C	0.180749	0.403423	0.70155
173	C	0.219327	0.315061	0.034908
174	C	0.092382	0.276476	0.701637
175	O	0.252725	0.341949	0.695305
176	O	0.153866	0.409929	0.695212
177	O	0.085876	0.243079	0.695388
178	C	0.318958	0.127994	0.621526
179	C	0.355284	0.153459	0.621137
180	C	0.367842	0.19014	0.621509
181	C	0.342364	0.200989	0.621154
182	C	0.305681	0.176872	0.954806
183	C	0.29483	0.140545	0.62113
184	H	0.350898	0.227226	0.624074
185	H	0.26859	0.122847	0.624037
186	H	0.372985	0.144929	0.624107
187	C	0.307712	0.091793	0.628213
188	C	0.280719	0.188108	0.961504
189	C	0.40403	0.215098	0.62826
190	O	0.246535	0.163225	0.63511
191	O	0.332595	0.082488	0.635137
192	O	0.413328	0.249282	0.635196
193	C	0.270502	0.236477	0.980739
194	C	0.248849	0.221032	0.685082
195	C	0.230888	0.236196	0.70654
196	C	0.234624	0.268517	0.690175
197	C	0.257321	0.284452	0.986629
198	H	0.247228	0.198871	0.698491
199	C	0.275358	0.269246	0.966404
200	H	0.259497	0.306393	0.971839
201	H	0.290651	0.281423	0.939179
202	C	0.209513	0.218178	0.746738
203	H	0.211717	0.195445	0.756957
204	H	0.181734	0.208804	0.740194
205	H	0.21822	0.236556	0.774618
206	N	0.288404	0.222352	0.960075
207	H	0.307935	0.238082	0.940976
208	N	0.214827	0.282137	0.707005
209	H	0.194964	0.266525	0.7254
210	C	0.259347	0.033193	0.980736
211	C	0.27478	0.026979	0.685086
212	C	0.259622	0.493841	0.706517
213	C	0.227304	0.465263	0.690142
214	C	0.211375	0.472032	0.986596
215	H	0.296945	0.047508	0.698497
216	C	0.226592	0.005276	0.966371
217	H	0.189436	0.452272	0.971799
218	H	0.214401	0.008399	0.939165
219	C	0.277641	0.490483	0.746715
220	H	0.300363	0.515406	0.756941
221	H	0.287012	0.472072	0.740161
222	H	0.259253	0.480798	0.774595
223	N	0.273472	0.065226	0.960089
224	H	0.257747	0.06903	0.940983
225	N	0.213677	0.431843	0.706969
226	H	0.229287	0.427589	0.725364
227	C	0.462625	0.225322	0.980802
228	C	0.468831	0.246959	0.685159
229	C	0.00196	0.264926	0.706607
230	C	0.030533	0.26116	0.690271
231	C	0.023761	0.238435	0.986752
232	H	0.448301	0.248607	0.698557
233	C	0.490545	0.22049	0.966444
234	H	0.043538	0.236305	0.971915
235	H	0.48742	0.205162	0.939252
236	C	0.005332	0.286325	0.746788
237	H	0.980393	0.284133	0.757004
238	H	0.023737	0.314097	0.74022
239	H	0.014999	0.277627	0.774675
240	N	0.430601	0.207431	0.960128
241	H	0.426804	0.187911	0.941006
242	N	0.06396	0.28098	0.707062
243	H	0.068219	0.300862	0.725427
244	C	0.172697	0.86784	0.039199
245	C	0.137325	0.839973	0.039145
246	C	0.127963	0.804009	0.03926
247	C	0.155834	0.79651	0.039164
248	C	0.191798	0.82311	0.372572
249	C	0.199305	0.858487	0.039173
250	H	0.149568	0.770829	0.036444
251	H	0.224981	0.877892	0.036356
252	H	0.117913	0.846242	0.036418
253	C	0.18075	0.903423	0.034884
254	C	0.219328	0.815061	0.36824
255	C	0.092383	0.776476	0.034972
256	O	0.252725	0.841948	0.028638
257	O	0.153867	0.909928	0.028546
258	O	0.085875	0.743077	0.02872
259	C	0.318958	0.627994	0.954859
260	C	0.355284	0.65346	0.954467
261	C	0.367842	0.69014	0.954839
262	C	0.342364	0.700989	0.954487
263	C	0.305682	0.676873	0.288142
264	C	0.29483	0.640545	0.954464
265	H	0.350898	0.727226	0.957404
266	H	0.26859	0.622848	0.957368
267	H	0.372986	0.644928	0.957437
268	C	0.307713	0.591793	0.961547
269	C	0.280719	0.688107	0.294837
270	C	0.404031	0.715097	0.96159
271	O	0.246536	0.663226	0.968444
272	O	0.332595	0.582487	0.96847
273	O	0.41333	0.749283	0.96853
274	C	0.270503	0.736477	0.314074
275	C	0.248849	0.721031	0.018416
276	C	0.230888	0.736195	0.039873
277	C	0.234624	0.768516	0.023508
278	C	0.257321	0.784452	0.319964
279	H	0.247228	0.698872	0.031826
280	C	0.275359	0.769246	0.299738
281	H	0.259497	0.806393	0.305174
282	H	0.290652	0.781423	0.272512
283	C	0.209514	0.718179	0.080072
284	H	0.211717	0.695445	0.09029
285	H	0.181735	0.708804	0.073527
286	H	0.21822	0.736556	0.107952
287	N	0.288404	0.722351	0.29341
288	H	0.307935	0.738081	0.27431
289	N	0.214827	0.782136	0.040339
290	H	0.194965	0.766525	0.058735
291	C	0.259347	0.533193	0.314071
292	C	0.274781	0.526979	0.01842
293	C	0.259623	0.993841	0.03985
294	C	0.227304	0.965263	0.023476
295	C	0.211375	0.972032	0.31993
296	H	0.296945	0.547508	0.031833
297	C	0.226592	0.505275	0.299705
298	H	0.189437	0.952272	0.305133
299	H	0.214402	0.508399	0.272499
300	C	0.277641	0.990483	0.080049
301	H	0.300363	0.015406	0.090275
302	H	0.287014	0.972074	0.073496
303	H	0.259254	0.980798	0.107928
304	N	0.273473	0.565227	0.293423
305	H	0.257747	0.569031	0.274318
306	N	0.213679	0.931843	0.040301
307	H	0.229287	0.927589	0.058699
308	C	0.462624	0.725322	0.314138
309	C	0.468831	0.74696	0.018494
310	C	0.001959	0.764926	0.039939
311	C	0.030533	0.76116	0.023604
312	C	0.023762	0.738434	0.320086
313	H	0.448301	0.748606	0.031892
314	C	0.490547	0.720491	0.299778
315	H	0.043538	0.736306	0.305249
316	H	0.48742	0.705162	0.272586
317	C	0.005332	0.786324	0.080121
318	H	0.980394	0.784133	0.090337
319	H	0.023737	0.814097	0.073554
320	H	0.014998	0.777627	0.108007
321	N	0.430602	0.707432	0.293461
322	H	0.426805	0.687912	0.274341
323	N	0.063961	0.78098	0.040397
324	H	0.06822	0.800861	0.058762
325	C	0.172697	0.86784	0.372532
326	C	0.137325	0.839973	0.372479
327	C	0.127963	0.804009	0.372592
328	C	0.155834	0.79651	0.372496
329	C	0.191798	0.82311	0.705902
330	C	0.199305	0.858487	0.372505
331	H	0.149568	0.770829	0.369778
332	H	0.224981	0.877892	0.369688
333	H	0.117913	0.846242	0.369751
334	C	0.18075	0.903423	0.368217
335	C	0.219328	0.815061	0.701574
336	C	0.092383	0.776476	0.368303
337	O	0.252725	0.841948	0.361971
338	O	0.153867	0.909928	0.361878
339	O	0.085875	0.743077	0.362054
340	C	0.318958	0.627994	0.288194
341	C	0.355284	0.65346	0.287803
342	C	0.367842	0.69014	0.288175
343	C	0.342364	0.700989	0.28782
344	C	0.305682	0.676873	0.621476
345	C	0.29483	0.640545	0.287798
346	H	0.350898	0.727226	0.29074
347	H	0.26859	0.622848	0.290703
348	H	0.372986	0.644928	0.290773
349	C	0.307713	0.591793	0.29488
350	C	0.280719	0.688107	0.62817
351	C	0.404031	0.715097	0.294925
352	O	0.246536	0.663226	0.301778
353	O	0.332595	0.582487	0.301805
354	O	0.41333	0.749283	0.301863
355	C	0.270503	0.736477	0.647409
356	C	0.248849	0.721031	0.351749
357	C	0.230888	0.736195	0.373206
358	C	0.234624	0.768516	0.356841
359	C	0.257321	0.784452	0.653296
360	H	0.247228	0.698872	0.36516
361	C	0.275359	0.769246	0.63307
362	H	0.259497	0.806393	0.638505
363	H	0.290652	0.781423	0.605845
364	C	0.209514	0.718179	0.413405
365	H	0.211717	0.695445	0.423624
366	H	0.181735	0.708804	0.40686
367	H	0.21822	0.736556	0.441284
368	N	0.288404	0.722351	0.626742
369	H	0.307935	0.738081	0.607642
370	N	0.214827	0.782136	0.373672
371	H	0.194965	0.766525	0.392066
372	C	0.259347	0.533193	0.647405
373	C	0.274781	0.526979	0.351752
374	C	0.259623	0.993841	0.373183
375	C	0.227304	0.965263	0.356808
376	C	0.211375	0.972032	0.653262
377	H	0.296945	0.547508	0.365167
378	C	0.226592	0.505275	0.633037
379	H	0.189437	0.952272	0.638465
380	H	0.214402	0.508399	0.605832
381	C	0.277641	0.990483	0.413382
382	H	0.300363	0.015406	0.423607
383	H	0.287014	0.972074	0.40683
384	H	0.259254	0.980798	0.441261
385	N	0.273473	0.565227	0.626755
386	H	0.257747	0.569031	0.607649
387	N	0.213679	0.931843	0.373635
388	H	0.229287	0.927589	0.392033
389	C	0.462624	0.725322	0.647472
390	C	0.468831	0.74696	0.351828
391	C	0.001959	0.764926	0.373273
392	C	0.030533	0.76116	0.356938
393	C	0.023762	0.738434	0.653419
394	H	0.448301	0.748606	0.365223
395	C	0.490547	0.720491	0.63311
396	H	0.043538	0.736306	0.638582
397	H	0.48742	0.705162	0.605918
398	C	0.005332	0.786324	0.413455
399	H	0.980394	0.784133	0.42367
400	H	0.023737	0.814097	0.406887
401	H	0.014998	0.777627	0.441341
402	N	0.430602	0.707432	0.626795
403	H	0.426805	0.687912	0.607672
404	N	0.063961	0.78098	0.373731
405	H	0.06822	0.800861	0.392096
406	C	0.172697	0.86784	0.705866
407	C	0.137325	0.839973	0.705809
408	C	0.127963	0.804009	0.705926
409	C	0.155834	0.79651	0.705829
410	C	0.191798	0.82311	0.039238
411	C	0.199305	0.858487	0.705839
412	H	0.149568	0.770829	0.703108
413	H	0.224981	0.877892	0.703022
414	H	0.117913	0.846242	0.703085
415	C	0.18075	0.903423	0.70155
416	C	0.219328	0.815061	0.034908
417	C	0.092383	0.776476	0.701637
418	O	0.252725	0.841948	0.695305
419	O	0.153867	0.909928	0.695212
420	O	0.085875	0.743077	0.695388
421	C	0.318958	0.627994	0.621526
422	C	0.355284	0.65346	0.621137
423	C	0.367842	0.69014	0.621509
424	C	0.342364	0.700989	0.621154
425	C	0.305682	0.676873	0.954806
426	C	0.29483	0.640545	0.62113
427	H	0.350898	0.727226	0.624074
428	H	0.26859	0.622848	0.624037
429	H	0.372986	0.644928	0.624107
430	C	0.307713	0.591793	0.628213
431	C	0.280719	0.688107	0.961504
432	C	0.404031	0.715097	0.62826
433	O	0.246536	0.663226	0.63511
434	O	0.332595	0.582487	0.635137
435	O	0.41333	0.749283	0.635196
436	C	0.270503	0.736477	0.980739
437	C	0.248849	0.721031	0.685082
438	C	0.230888	0.736195	0.70654
439	C	0.234624	0.768516	0.690175
440	C	0.257321	0.784452	0.986629
441	H	0.247228	0.698872	0.698491
442	C	0.275359	0.769246	0.966404
443	H	0.259497	0.806393	0.971839
444	H	0.290652	0.781423	0.939179
445	C	0.209514	0.718179	0.746738
446	H	0.211717	0.695445	0.756957
447	H	0.181735	0.708804	0.740194
448	H	0.21822	0.736556	0.774618
449	N	0.288404	0.722351	0.960075
450	H	0.307935	0.738081	0.940976
451	N	0.214827	0.782136	0.707005
452	H	0.194965	0.766525	0.7254
453	C	0.259347	0.533193	0.980736
454	C	0.274781	0.526979	0.685086
455	C	0.259623	0.993841	0.706517
456	C	0.227304	0.965263	0.690142
457	C	0.211375	0.972032	0.986596
458	H	0.296945	0.547508	0.698497
459	C	0.226592	0.505275	0.966371
460	H	0.189437	0.952272	0.971799
461	H	0.214402	0.508399	0.939165
462	C	0.277641	0.990483	0.746715
463	H	0.300363	0.015406	0.756941
464	H	0.287014	0.972074	0.740161
465	H	0.259254	0.980798	0.774595
466	N	0.273473	0.565227	0.960089
467	H	0.257747	0.569031	0.940983
468	N	0.213679	0.931843	0.706969
469	H	0.229287	0.927589	0.725364
470	C	0.462624	0.725322	0.980802
471	C	0.468831	0.74696	0.685159
472	C	0.001959	0.764926	0.706607
473	C	0.030533	0.76116	0.690271
474	C	0.023762	0.738434	0.986752
475	H	0.448301	0.748606	0.698557
476	C	0.490547	0.720491	0.966444
477	H	0.043538	0.736306	0.971915
478	H	0.48742	0.705162	0.939252
479	C	0.005332	0.786324	0.746788
480	H	0.980394	0.784133	0.757004
481	H	0.023737	0.814097	0.74022
482	H	0.014998	0.777627	0.774675
483	N	0.430602	0.707432	0.960128
484	H	0.426805	0.687912	0.941006
485	N	0.063961	0.78098	0.707062
486	H	0.06822	0.800861	0.725427
487	C	0.672697	0.367841	0.039199
488	C	0.637325	0.339973	0.039145
489	C	0.627961	0.304009	0.03926
490	C	0.655834	0.29651	0.039164
491	C	0.691797	0.323111	0.372572
492	C	0.699304	0.358485	0.039173
493	H	0.649568	0.270829	0.036444
494	H	0.724979	0.377892	0.036356
495	H	0.617914	0.346242	0.036418
496	C	0.68075	0.403423	0.034884
497	C	0.719327	0.315061	0.36824
498	C	0.592381	0.276476	0.034972
499	O	0.752725	0.341949	0.028638
500	O	0.653865	0.409929	0.028546
501	O	0.585876	0.243079	0.02872
502	C	0.818957	0.127994	0.954859
503	C	0.855283	0.153459	0.954467
504	C	0.867841	0.19014	0.954839
505	C	0.842363	0.200989	0.954487
506	C	0.805681	0.176872	0.288142
507	C	0.79483	0.140545	0.954464
508	H	0.850897	0.227226	0.957404
509	H	0.76859	0.122847	0.957368
510	H	0.872987	0.144929	0.957437
511	C	0.807713	0.091793	0.961547
512	C	0.780718	0.188108	0.294837
513	C	0.904031	0.215098	0.96159
514	O	0.746534	0.163225	0.968444
515	O	0.832594	0.082488	0.96847
516	O	0.913329	0.249282	0.96853
517	C	0.770502	0.236477	0.314074
518	C	0.748849	0.221032	0.018416
519	C	0.730888	0.236196	0.039873
520	C	0.734623	0.268517	0.023508
521	C	0.757322	0.284452	0.319964
522	H	0.747228	0.198871	0.031826
523	C	0.775358	0.269246	0.299738
524	H	0.759496	0.306393	0.305174
525	H	0.790651	0.281423	0.272512
526	C	0.709513	0.218178	0.080072
527	H	0.711716	0.195445	0.09029
528	H	0.681734	0.208804	0.073527
529	H	0.71822	0.236556	0.107952
530	N	0.788403	0.222352	0.29341
531	H	0.807934	0.238082	0.27431
532	N	0.714826	0.282137	0.040339
533	H	0.694965	0.266525	0.058735
534	C	0.759348	0.033193	0.314071
535	C	0.774779	0.026979	0.01842
536	C	0.759621	0.493841	0.03985
537	C	0.727305	0.465263	0.023476
538	C	0.711375	0.472032	0.31993
539	H	0.796944	0.047508	0.031833
540	C	0.726591	0.005276	0.299705
541	H	0.689435	0.452272	0.305133
542	H	0.714402	0.008399	0.272499
543	C	0.777641	0.490483	0.080049
544	H	0.800363	0.515406	0.090275
545	H	0.787013	0.472072	0.073496
546	H	0.759254	0.480798	0.107928
547	N	0.773471	0.065226	0.293423
548	H	0.757747	0.06903	0.274318
549	N	0.713676	0.431843	0.040301
550	H	0.729287	0.427589	0.058699
551	C	0.962623	0.225322	0.314138
552	C	0.96883	0.246959	0.018494
553	C	0.50196	0.264926	0.039939
554	C	0.530533	0.26116	0.023604
555	C	0.52376	0.238435	0.320086
556	H	0.9483	0.248607	0.031892
557	C	0.990546	0.22049	0.299778
558	H	0.543538	0.236305	0.305249
559	H	0.987421	0.205162	0.272586
560	C	0.505332	0.286325	0.080121
561	H	0.480394	0.284133	0.090337
562	H	0.523737	0.314097	0.073554
563	H	0.514998	0.277627	0.108007
564	N	0.930602	0.207431	0.293461
565	H	0.926805	0.187911	0.274341
566	N	0.563962	0.28098	0.040397
567	H	0.568218	0.300862	0.058762
568	C	0.672697	0.367841	0.372532
569	C	0.637325	0.339973	0.372479
570	C	0.627961	0.304009	0.372592
571	C	0.655834	0.29651	0.372496
572	C	0.691797	0.323111	0.705902
573	C	0.699304	0.358485	0.372505
574	H	0.649568	0.270829	0.369778
575	H	0.724979	0.377892	0.369688
576	H	0.617914	0.346242	0.369751
577	C	0.68075	0.403423	0.368217
578	C	0.719327	0.315061	0.701574
579	C	0.592381	0.276476	0.368303
580	O	0.752725	0.341949	0.361971
581	O	0.653865	0.409929	0.361878
582	O	0.585876	0.243079	0.362054
583	C	0.818957	0.127994	0.288194
584	C	0.855283	0.153459	0.287803
585	C	0.867841	0.19014	0.288175
586	C	0.842363	0.200989	0.28782
587	C	0.805681	0.176872	0.621476
588	C	0.79483	0.140545	0.287798
589	H	0.850897	0.227226	0.29074
590	H	0.76859	0.122847	0.290703
591	H	0.872987	0.144929	0.290773
592	C	0.807713	0.091793	0.29488
593	C	0.780718	0.188108	0.62817
594	C	0.904031	0.215098	0.294925
595	O	0.746534	0.163225	0.301778
596	O	0.832594	0.082488	0.301805
597	O	0.913329	0.249282	0.301863
598	C	0.770502	0.236477	0.647409
599	C	0.748849	0.221032	0.351749
600	C	0.730888	0.236196	0.373206
601	C	0.734623	0.268517	0.356841
602	C	0.757322	0.284452	0.653296
603	H	0.747228	0.198871	0.36516
604	C	0.775358	0.269246	0.63307
605	H	0.759496	0.306393	0.638505
606	H	0.790651	0.281423	0.605845
607	C	0.709513	0.218178	0.413405
608	H	0.711716	0.195445	0.423624
609	H	0.681734	0.208804	0.40686
610	H	0.71822	0.236556	0.441284
611	N	0.788403	0.222352	0.626742
612	H	0.807934	0.238082	0.607642
613	N	0.714826	0.282137	0.373672
614	H	0.694965	0.266525	0.392066
615	C	0.759348	0.033193	0.647405
616	C	0.774779	0.026979	0.351752
617	C	0.759621	0.493841	0.373183
618	C	0.727305	0.465263	0.356808
619	C	0.711375	0.472032	0.653262
620	H	0.796944	0.047508	0.365167
621	C	0.726591	0.005276	0.633037
622	H	0.689435	0.452272	0.638465
623	H	0.714402	0.008399	0.605832
624	C	0.777641	0.490483	0.413382
625	H	0.800363	0.515406	0.423607
626	H	0.787013	0.472072	0.40683
627	H	0.759254	0.480798	0.441261
628	N	0.773471	0.065226	0.626755
629	H	0.757747	0.06903	0.607649
630	N	0.713676	0.431843	0.373635
631	H	0.729287	0.427589	0.392033
632	C	0.962623	0.225322	0.647472
633	C	0.96883	0.246959	0.351828
634	C	0.50196	0.264926	0.373273
635	C	0.530533	0.26116	0.356938
636	C	0.52376	0.238435	0.653419
637	H	0.9483	0.248607	0.365223
638	C	0.990546	0.22049	0.63311
639	H	0.543538	0.236305	0.638582
640	H	0.987421	0.205162	0.605918
641	C	0.505332	0.286325	0.413455
642	H	0.480394	0.284133	0.42367
643	H	0.523737	0.314097	0.406887
644	H	0.514998	0.277627	0.441341
645	N	0.930602	0.207431	0.626795
646	H	0.926805	0.187911	0.607672
647	N	0.563962	0.28098	0.373731
648	H	0.568218	0.300862	0.392096
649	C	0.672697	0.367841	0.705866
650	C	0.637325	0.339973	0.705809
651	C	0.627961	0.304009	0.705926
652	C	0.655834	0.29651	0.705829
653	C	0.691797	0.323111	0.039238
654	C	0.699304	0.358485	0.705839
655	H	0.649568	0.270829	0.703108
656	H	0.724979	0.377892	0.703022
657	H	0.617914	0.346242	0.703085
658	C	0.68075	0.403423	0.70155
659	C	0.719327	0.315061	0.034908
660	C	0.592381	0.276476	0.701637
661	O	0.752725	0.341949	0.695305
662	O	0.653865	0.409929	0.695212
663	O	0.585876	0.243079	0.695388
664	C	0.818957	0.127994	0.621526
665	C	0.855283	0.153459	0.621137
666	C	0.867841	0.19014	0.621509
667	C	0.842363	0.200989	0.621154
668	C	0.805681	0.176872	0.954806
669	C	0.79483	0.140545	0.62113
670	H	0.850897	0.227226	0.624074
671	H	0.76859	0.122847	0.624037
672	H	0.872987	0.144929	0.624107
673	C	0.807713	0.091793	0.628213
674	C	0.780718	0.188108	0.961504
675	C	0.904031	0.215098	0.62826
676	O	0.746534	0.163225	0.63511
677	O	0.832594	0.082488	0.635137
678	O	0.913329	0.249282	0.635196
679	C	0.770502	0.236477	0.980739
680	C	0.748849	0.221032	0.685082
681	C	0.730888	0.236196	0.70654
682	C	0.734623	0.268517	0.690175
683	C	0.757322	0.284452	0.986629
684	H	0.747228	0.198871	0.698491
685	C	0.775358	0.269246	0.966404
686	H	0.759496	0.306393	0.971839
687	H	0.790651	0.281423	0.939179
688	C	0.709513	0.218178	0.746738
689	H	0.711716	0.195445	0.756957
690	H	0.681734	0.208804	0.740194
691	H	0.71822	0.236556	0.774618
692	N	0.788403	0.222352	0.960075
693	H	0.807934	0.238082	0.940976
694	N	0.714826	0.282137	0.707005
695	H	0.694965	0.266525	0.7254
696	C	0.759348	0.033193	0.980736
697	C	0.774779	0.026979	0.685086
698	C	0.759621	0.493841	0.706517
699	C	0.727305	0.465263	0.690142
700	C	0.711375	0.472032	0.986596
701	H	0.796944	0.047508	0.698497
702	C	0.726591	0.005276	0.966371
703	H	0.689435	0.452272	0.971799
704	H	0.714402	0.008399	0.939165
705	C	0.777641	0.490483	0.746715
706	H	0.800363	0.515406	0.756941
707	H	0.787013	0.472072	0.740161
708	H	0.759254	0.480798	0.774595
709	N	0.773471	0.065226	0.960089
710	H	0.757747	0.06903	0.940983
711	N	0.713676	0.431843	0.706969
712	H	0.729287	0.427589	0.725364
713	C	0.962623	0.225322	0.980802
714	C	0.96883	0.246959	0.685159
715	C	0.50196	0.264926	0.706607
716	C	0.530533	0.26116	0.690271
717	C	0.52376	0.238435	0.986752
718	H	0.9483	0.248607	0.698557
719	C	0.990546	0.22049	0.966444
720	H	0.543538	0.236305	0.971915
721	H	0.987421	0.205162	0.939252
722	C	0.505332	0.286325	0.746788
723	H	0.480394	0.284133	0.757004
724	H	0.523737	0.314097	0.74022
725	H	0.514998	0.277627	0.774675
726	N	0.930602	0.207431	0.960128
727	H	0.926805	0.187911	0.941006
728	N	0.563962	0.28098	0.707062
729	H	0.568218	0.300862	0.725427
730	C	0.672698	0.86784	0.039199
731	C	0.637326	0.839973	0.039145
732	C	0.627963	0.804009	0.03926
733	C	0.655835	0.79651	0.039164
734	C	0.691798	0.82311	0.372572
735	C	0.699306	0.858487	0.039173
736	H	0.649567	0.770829	0.036444
737	H	0.72498	0.877892	0.036356
738	H	0.617913	0.846242	0.036418
739	C	0.680749	0.903423	0.034884
740	C	0.719328	0.815061	0.36824
741	C	0.592382	0.776476	0.034972
742	O	0.752726	0.841948	0.028638
743	O	0.653867	0.909928	0.028546
744	O	0.585877	0.743077	0.02872
745	C	0.818958	0.627994	0.954859
746	C	0.855284	0.65346	0.954467
747	C	0.867842	0.69014	0.954839
748	C	0.842365	0.700989	0.954487
749	C	0.805682	0.676873	0.288142
750	C	0.794831	0.640545	0.954464
751	H	0.850898	0.727226	0.957404
752	H	0.768592	0.622848	0.957368
753	H	0.872985	0.644928	0.957437
754	C	0.807712	0.591793	0.961547
755	C	0.780719	0.688107	0.294837
756	C	0.904032	0.715097	0.96159
757	O	0.746535	0.663226	0.968444
758	O	0.832595	0.582487	0.96847
759	O	0.913331	0.749283	0.96853
760	C	0.770503	0.736477	0.314074
761	C	0.74885	0.721031	0.018416
762	C	0.730888	0.736195	0.039873
763	C	0.734624	0.768516	0.023508
764	C	0.757323	0.784452	0.319964
765	H	0.747227	0.698872	0.031826
766	C	0.775359	0.769246	0.299738
767	H	0.759497	0.806393	0.305174
768	H	0.790652	0.781423	0.272512
769	C	0.709514	0.718179	0.080072
770	H	0.711717	0.695445	0.09029
771	H	0.681736	0.708804	0.073527
772	H	0.718219	0.736556	0.107952
773	N	0.788404	0.722351	0.29341
774	H	0.807935	0.738081	0.27431
775	N	0.714827	0.782136	0.040339
776	H	0.694964	0.766525	0.058735
777	C	0.759347	0.533193	0.314071
778	C	0.77478	0.526979	0.01842
779	C	0.759622	0.993841	0.03985
780	C	0.727306	0.965263	0.023476
781	C	0.711375	0.972032	0.31993
782	H	0.796945	0.547508	0.031833
783	C	0.726592	0.505275	0.299705
784	H	0.689436	0.952272	0.305133
785	H	0.714401	0.508399	0.272499
786	C	0.77764	0.990483	0.080049
787	H	0.800362	0.015406	0.090275
788	H	0.787013	0.972074	0.073496
789	H	0.759253	0.980798	0.107928
790	N	0.773473	0.565227	0.293423
791	H	0.757746	0.569031	0.274318
792	N	0.713677	0.931843	0.040301
793	H	0.729288	0.927589	0.058699
794	C	0.962624	0.725322	0.314138
795	C	0.968831	0.74696	0.018494
796	C	0.50196	0.764926	0.039939
797	C	0.530534	0.76116	0.023604
798	C	0.523761	0.738434	0.320086
799	H	0.948301	0.748606	0.031892
800	C	0.990547	0.720491	0.299778
801	H	0.543538	0.736306	0.305249
802	H	0.98742	0.705162	0.272586
803	C	0.505332	0.786324	0.080121
804	H	0.480394	0.784133	0.090337
805	H	0.523738	0.814097	0.073554
806	H	0.514999	0.777627	0.108007
807	N	0.930602	0.707432	0.293461
808	H	0.926804	0.687912	0.274341
809	N	0.563961	0.78098	0.040397
810	H	0.568219	0.800861	0.058762
811	C	0.672698	0.86784	0.372532
812	C	0.637326	0.839973	0.372479
813	C	0.627963	0.804009	0.372592
814	C	0.655835	0.79651	0.372496
815	C	0.691798	0.82311	0.705902
816	C	0.699306	0.858487	0.372505
817	H	0.649567	0.770829	0.369778
818	H	0.72498	0.877892	0.369688
819	H	0.617913	0.846242	0.369751
820	C	0.680749	0.903423	0.368217
821	C	0.719328	0.815061	0.701574
822	C	0.592382	0.776476	0.368303
823	O	0.752726	0.841948	0.361971
824	O	0.653867	0.909928	0.361878
825	O	0.585877	0.743077	0.362054
826	C	0.818958	0.627994	0.288194
827	C	0.855284	0.65346	0.287803
828	C	0.867842	0.69014	0.288175
829	C	0.842365	0.700989	0.28782
830	C	0.805682	0.676873	0.621476
831	C	0.794831	0.640545	0.287798
832	H	0.850898	0.727226	0.29074
833	H	0.768592	0.622848	0.290703
834	H	0.872985	0.644928	0.290773
835	C	0.807712	0.591793	0.29488
836	C	0.780719	0.688107	0.62817
837	C	0.904032	0.715097	0.294925
838	O	0.746535	0.663226	0.301778
839	O	0.832595	0.582487	0.301805
840	O	0.913331	0.749283	0.301863
841	C	0.770503	0.736477	0.647409
842	C	0.74885	0.721031	0.351749
843	C	0.730888	0.736195	0.373206
844	C	0.734624	0.768516	0.356841
845	C	0.757323	0.784452	0.653296
846	H	0.747227	0.698872	0.36516
847	C	0.775359	0.769246	0.63307
848	H	0.759497	0.806393	0.638505
849	H	0.790652	0.781423	0.605845
850	C	0.709514	0.718179	0.413405
851	H	0.711717	0.695445	0.423624
852	H	0.681736	0.708804	0.40686
853	H	0.718219	0.736556	0.441284
854	N	0.788404	0.722351	0.626742
855	H	0.807935	0.738081	0.607642
856	N	0.714827	0.782136	0.373672
857	H	0.694964	0.766525	0.392066
858	C	0.759347	0.533193	0.647405
859	C	0.77478	0.526979	0.351752
860	C	0.759622	0.993841	0.373183
861	C	0.727306	0.965263	0.356808
862	C	0.711375	0.972032	0.653262
863	H	0.796945	0.547508	0.365167
864	C	0.726592	0.505275	0.633037
865	H	0.689436	0.952272	0.638465
866	H	0.714401	0.508399	0.605832
867	C	0.77764	0.990483	0.413382
868	H	0.800362	0.015406	0.423607
869	H	0.787013	0.972074	0.40683
870	H	0.759253	0.980798	0.441261
871	N	0.773473	0.565227	0.626755
872	H	0.757746	0.569031	0.607649
873	N	0.713677	0.931843	0.373635
874	H	0.729288	0.927589	0.392033
875	C	0.962624	0.725322	0.647472
876	C	0.968831	0.74696	0.351828
877	C	0.50196	0.764926	0.373273
878	C	0.530534	0.76116	0.356938
879	C	0.523761	0.738434	0.653419
880	H	0.948301	0.748606	0.365223
881	C	0.990547	0.720491	0.63311
882	H	0.543538	0.736306	0.638582
883	H	0.98742	0.705162	0.605918
884	C	0.505332	0.786324	0.413455
885	H	0.480394	0.784133	0.42367
886	H	0.523738	0.814097	0.406887
887	H	0.514999	0.777627	0.441341
888	N	0.930602	0.707432	0.626795
889	H	0.926804	0.687912	0.607672
890	N	0.563961	0.78098	0.373731
891	H	0.568219	0.800861	0.392096
892	C	0.672698	0.86784	0.705866
893	C	0.637326	0.839973	0.705809
894	C	0.627963	0.804009	0.705926
895	C	0.655835	0.79651	0.705829
896	C	0.691798	0.82311	0.039238
897	C	0.699306	0.858487	0.705839
898	H	0.649567	0.770829	0.703108
899	H	0.72498	0.877892	0.703022
900	H	0.617913	0.846242	0.703085
901	C	0.680749	0.903423	0.70155
902	C	0.719328	0.815061	0.034908
903	C	0.592382	0.776476	0.701637
904	O	0.752726	0.841948	0.695305
905	O	0.653867	0.909928	0.695212
906	O	0.585877	0.743077	0.695388
907	C	0.818958	0.627994	0.621526
908	C	0.855284	0.65346	0.621137
909	C	0.867842	0.69014	0.621509
910	C	0.842365	0.700989	0.621154
911	C	0.805682	0.676873	0.954806
912	C	0.794831	0.640545	0.62113
913	H	0.850898	0.727226	0.624074
914	H	0.768592	0.622848	0.624037
915	H	0.872985	0.644928	0.624107
916	C	0.807712	0.591793	0.628213
917	C	0.780719	0.688107	0.961504
918	C	0.904032	0.715097	0.62826
919	O	0.746535	0.663226	0.63511
920	O	0.832595	0.582487	0.635137
921	O	0.913331	0.749283	0.635196
922	C	0.770503	0.736477	0.980739
923	C	0.74885	0.721031	0.685082
924	C	0.730888	0.736195	0.70654
925	C	0.734624	0.768516	0.690175
926	C	0.757323	0.784452	0.986629
927	H	0.747227	0.698872	0.698491
928	C	0.775359	0.769246	0.966404
929	H	0.759497	0.806393	0.971839
930	H	0.790652	0.781423	0.939179
931	C	0.709514	0.718179	0.746738
932	H	0.711717	0.695445	0.756957
933	H	0.681736	0.708804	0.740194
934	H	0.718219	0.736556	0.774618
935	N	0.788404	0.722351	0.960075
936	H	0.807935	0.738081	0.940976
937	N	0.714827	0.782136	0.707005
938	H	0.694964	0.766525	0.7254
939	C	0.759347	0.533193	0.980736
940	C	0.77478	0.526979	0.685086
941	C	0.759622	0.993841	0.706517
942	C	0.727306	0.965263	0.690142
943	C	0.711375	0.972032	0.986596
944	H	0.796945	0.547508	0.698497
945	C	0.726592	0.505275	0.966371
946	H	0.689436	0.952272	0.971799
947	H	0.714401	0.508399	0.939165
948	C	0.77764	0.990483	0.746715
949	H	0.800362	0.015406	0.756941
950	H	0.787013	0.972074	0.740161
951	H	0.759253	0.980798	0.774595
952	N	0.773473	0.565227	0.960089
953	H	0.757746	0.569031	0.940983
954	N	0.713677	0.931843	0.706969
955	H	0.729288	0.927589	0.725364
956	C	0.962624	0.725322	0.980802
957	C	0.968831	0.74696	0.685159
958	C	0.50196	0.764926	0.706607
959	C	0.530534	0.76116	0.690271
960	C	0.523761	0.738434	0.986752
961	H	0.948301	0.748606	0.698557
962	C	0.990547	0.720491	0.966444
963	H	0.543538	0.736306	0.971915
964	H	0.98742	0.705162	0.939252
965	C	0.505332	0.786324	0.746788
966	H	0.480394	0.784133	0.757004
967	H	0.523738	0.814097	0.74022
968	H	0.514999	0.777627	0.774675
969	N	0.930602	0.707432	0.960128
970	H	0.926804	0.687912	0.941006
971	N	0.563961	0.78098	0.707062
972	H	0.568219	0.800861	0.725427
