data_C720H360N144O144_2018-02-15_10:35:26
#******************************************
#
# CIF file created by Zeo++
# Zeo++ is an open source package to
# analyze microporous materials
#
#*******************************************

_cell_length_a		46.0762   
_cell_length_b		46.0762   
_cell_length_c		29.8666   
_cell_angle_alpha		90   
_cell_angle_beta		90   
_cell_angle_gamma		120   

_symmetry_space_group_name_H-M		'P1'
_symmetry_Int_Tables_number		1
_symmetry_cell_setting		Monoclinic

loop_
_symmetry_equiv_pos_as_xyz
'+x,+y,+z'

loop_
_atom_site_label
_atom_site_type_symbol
_atom_site_fract_x
_atom_site_fract_y
_atom_site_fract_z
1	C	0.021752	0.262586	0.348248
2	C	0.039957	0.298239	0.340069
3	C	0.042484	0.247742	0.019029
4	H	0.032961	0.224077	0.0311
5	O	0.025019	0.316987	0.333275
6	C	0.021752	0.262586	0.681581
7	C	0.039957	0.298239	0.673404
8	C	0.042484	0.247742	0.352363
9	H	0.032961	0.224077	0.364434
10	O	0.025019	0.316987	0.666607
11	C	0.021752	0.262586	0.014914
12	C	0.039957	0.298239	0.006736
13	C	0.042484	0.247742	0.685696
14	H	0.032961	0.224077	0.697766
15	O	0.025019	0.316987	0.999943
16	C	0.021751	0.762586	0.348248
17	C	0.039958	0.798239	0.340069
18	C	0.042483	0.747742	0.019029
19	H	0.03296	0.724077	0.0311
20	O	0.02502	0.816987	0.333275
21	C	0.021751	0.762586	0.681581
22	C	0.039958	0.798239	0.673404
23	C	0.042483	0.747742	0.352363
24	H	0.03296	0.724077	0.364434
25	O	0.02502	0.816987	0.666607
26	C	0.021751	0.762586	0.014914
27	C	0.039958	0.798239	0.006736
28	C	0.042483	0.747742	0.685696
29	H	0.03296	0.724077	0.697766
30	O	0.02502	0.816987	0.999943
31	H	0.01821	0.314105	0.30159
32	H	0.01821	0.314105	0.634923
33	H	0.01821	0.314105	0.968255
34	H	0.01821	0.814105	0.30159
35	H	0.01821	0.814105	0.634923
36	H	0.01821	0.814105	0.968255
37	C	0.074995	0.316198	0.331616
38	C	0.076	0.263407	0.003879
39	C	0.074995	0.316198	0.66495
40	C	0.076	0.263407	0.337213
41	C	0.074995	0.316198	0.998282
42	C	0.076	0.263407	0.670545
43	C	0.074994	0.816198	0.331616
44	C	0.075998	0.763405	0.003879
45	C	0.074994	0.816198	0.66495
46	C	0.075998	0.763405	0.337213
47	C	0.074994	0.816198	0.998282
48	C	0.075998	0.763405	0.670545
49	C	0.091889	0.297853	0.992875
50	C	0.104778	0.235886	0.038819
51	C	0.094616	0.246578	0.000546
52	H	0.094155	0.234853	0.069293
53	C	0.094066	0.351726	0.996226
54	C	0.103789	0.370261	0.036725
55	H	0.091204	0.359568	0.065813
56	C	0.091889	0.297853	0.326207
57	C	0.104778	0.235886	0.372151
58	C	0.094616	0.246578	0.333879
59	H	0.094155	0.234853	0.402627
60	C	0.094066	0.351726	0.32956
61	C	0.103789	0.370261	0.370059
62	H	0.091204	0.359568	0.399145
63	C	0.091889	0.297853	0.659539
64	C	0.104778	0.235886	0.705487
65	C	0.094616	0.246578	0.667213
66	H	0.094155	0.234853	0.735959
67	C	0.094066	0.351726	0.662894
68	C	0.103789	0.370261	0.703391
69	H	0.091204	0.359568	0.73248
70	C	0.091888	0.797851	0.992875
71	C	0.104777	0.735886	0.038819
72	C	0.094615	0.746577	0.000546
73	H	0.094156	0.734853	0.069293
74	C	0.094067	0.851726	0.996226
75	C	0.103789	0.870259	0.036725
76	H	0.091203	0.859568	0.065813
77	C	0.091888	0.797851	0.326207
78	C	0.104777	0.735886	0.372151
79	C	0.094615	0.746577	0.333879
80	H	0.094156	0.734853	0.402627
81	C	0.094067	0.851726	0.32956
82	C	0.103789	0.870259	0.370059
83	H	0.091203	0.859568	0.399145
84	C	0.091888	0.797851	0.659539
85	C	0.104777	0.735886	0.705487
86	C	0.094615	0.746577	0.667213
87	H	0.094156	0.734853	0.735959
88	C	0.094067	0.851726	0.662894
89	C	0.103789	0.870259	0.703391
90	H	0.091203	0.859568	0.73248
91	C	0.485431	0.24223	0.348881
92	C	0.464751	0.257085	0.020322
93	C	0.430802	0.241033	0.007068
94	C	0.414626	0.206396	0.997301
95	C	0.431886	0.188308	0.334583
96	C	0.46717	0.206532	0.340956
97	H	0.474457	0.28092	0.03177
98	O	0.380476	0.189269	0.992985
99	O	0.125922	0.314829	0.987092
100	O	0.482147	0.187993	0.332694
101	H	0.98826	0.191026	0.300749
102	H	0.518209	0.314105	0.30159
103	H	0.375832	0.187398	0.293978
104	H	0.129774	0.316418	0.28789
105	C	0.263602	0.244203	0.348439
106	C	0.248663	0.208624	0.019325
107	C	0.264432	0.190726	0.004848
108	C	0.298994	0.209202	0.994559
109	C	0.317307	0.244469	0.332966
110	C	0.299295	0.261606	0.340561
111	H	0.22492	0.194515	0.031145
112	O	0.31598	0.192092	0.989456
113	C	0.243291	0.260217	0.348607
114	C	0.207647	0.242783	0.340293
115	C	0.189484	0.259859	0.333616
116	C	0.207605	0.295197	0.99629
117	C	0.242179	0.313682	0.006458
118	C	0.258132	0.295756	0.020062
119	O	0.190474	0.312213	0.99187
120	H	0.281894	0.30985	0.03179
121	O	0.318074	0.295277	0.333691
122	O	0.189097	0.209252	0.332147
123	H	0.315395	0.299129	0.301906
124	H	0.192248	0.206098	0.30027
125	H	0.317838	0.189728	0.290339
126	H	0.188674	0.315002	0.292849
127	C	0.261401	0.020521	0.348252
128	C	0.296967	0.041254	0.019303
129	C	0.314885	0.074876	0.004547
130	C	0.296371	0.090821	0.993601
131	C	0.261092	0.073822	0.331853
132	C	0.243992	0.038737	0.339844
133	H	0.311074	0.031696	0.031373
134	O	0.313422	0.12488	0.988154
135	C	0.245367	0.484189	0.348697
136	C	0.262763	0.465862	0.341033
137	C	0.245631	0.43064	0.334012
138	C	0.210324	0.413561	0.996079
139	C	0.191881	0.429735	0.005986
140	C	0.209796	0.463557	0.019792
141	O	0.193223	0.379436	0.991382
142	H	0.19568	0.473248	0.031348
143	O	0.210345	0.023796	0.332689
144	O	0.296365	0.480756	0.333517
145	H	0.206625	0.517139	0.300943
146	H	0.299864	0.987011	0.301626
147	H	0.315886	0.12891	0.288994
148	H	0.190674	0.374995	0.292319
149	C	0.154017	0.2432	0.997271
150	C	0.134836	0.234635	0.037206
151	N	0.113451	0.252388	0.296363
152	H	0.145006	0.232671	0.066734
153	N	0.140916	0.250882	0.294837
154	C	0.26218	0.411669	0.998299
155	C	0.270777	0.401552	0.038608
156	C	0.2695	0.370244	0.040852
157	C	0.259113	0.3491	0.002865
158	N	0.253142	0.36174	0.298382
159	H	0.270514	0.360906	0.071529
160	H	0.272664	0.413932	0.067886
161	N	0.254513	0.390635	0.296179
162	C	0.135054	0.400301	0.039541
163	C	0.156495	0.411401	0.001858
164	N	0.144178	0.393069	0.297107
165	H	0.144133	0.410431	0.070398
166	N	0.11537	0.365492	0.294446
167	C	0.352824	0.260937	0.997529
168	C	0.371347	0.269625	0.038028
169	C	0.401365	0.268359	0.040777
170	C	0.412428	0.258042	0.003037
171	N	0.394055	0.252025	0.298326
172	H	0.411519	0.269389	0.071609
173	H	0.360681	0.271525	0.067137
174	N	0.366511	0.253326	0.295723
175	C	0.244565	0.092796	0.996153
176	C	0.235675	0.102756	0.036388
177	C	0.236866	0.134016	0.038806
178	C	0.247425	0.155322	0.000988
179	N	0.253466	0.142808	0.296453
180	H	0.235741	0.143224	0.069533
181	H	0.233698	0.090296	0.065622
182	N	0.252194	0.113971	0.294185
183	C	0.413068	0.152811	0.998289
184	C	0.402395	0.133788	0.038326
185	C	0.371067	0.10374	0.039856
186	C	0.350354	0.093526	0.00145
187	N	0.363426	0.112339	0.297241
188	H	0.361377	0.09314	0.070306
189	H	0.414467	0.144017	0.06787
190	N	0.39242	0.139804	0.295728
191	C	0.485431	0.24223	0.682217
192	C	0.464751	0.257085	0.353656
193	C	0.430802	0.241033	0.3404
194	C	0.414626	0.206396	0.330634
195	C	0.431886	0.188308	0.667917
196	C	0.46717	0.206532	0.674288
197	H	0.474457	0.28092	0.365103
198	O	0.380476	0.189269	0.326317
199	O	0.125922	0.314829	0.320425
200	O	0.482147	0.187993	0.666028
201	H	0.98826	0.191026	0.634083
202	H	0.518209	0.314105	0.634923
203	H	0.375832	0.187398	0.627313
204	H	0.129774	0.316418	0.621222
205	C	0.263602	0.244203	0.681775
206	C	0.248663	0.208624	0.352658
207	C	0.264432	0.190726	0.33818
208	C	0.298994	0.209202	0.327893
209	C	0.317307	0.244469	0.666299
210	C	0.299295	0.261606	0.673897
211	H	0.22492	0.194515	0.364477
212	O	0.31598	0.192092	0.322791
213	C	0.243291	0.260217	0.681939
214	C	0.207647	0.242783	0.673629
215	C	0.189484	0.259859	0.666949
216	C	0.207605	0.295197	0.329624
217	C	0.242179	0.313682	0.339791
218	C	0.258132	0.295756	0.353395
219	O	0.190474	0.312213	0.325202
220	H	0.281894	0.30985	0.365124
221	O	0.318074	0.295277	0.667026
222	O	0.189097	0.209252	0.665479
223	H	0.315395	0.299129	0.635238
224	H	0.192248	0.206098	0.633604
225	H	0.317838	0.189728	0.623673
226	H	0.188674	0.315002	0.626184
227	C	0.261401	0.020521	0.681584
228	C	0.296967	0.041254	0.352635
229	C	0.314885	0.074876	0.337879
230	C	0.296371	0.090821	0.326935
231	C	0.261092	0.073822	0.665188
232	C	0.243992	0.038737	0.67318
233	H	0.311074	0.031696	0.364705
234	O	0.313422	0.12488	0.321487
235	C	0.245367	0.484189	0.682033
236	C	0.262763	0.465862	0.674365
237	C	0.245631	0.43064	0.667344
238	C	0.210324	0.413561	0.329412
239	C	0.191881	0.429735	0.339319
240	C	0.209796	0.463557	0.353124
241	O	0.193223	0.379436	0.324715
242	H	0.19568	0.473248	0.364682
243	O	0.210345	0.023796	0.666021
244	O	0.296365	0.480756	0.666852
245	H	0.206625	0.517139	0.634277
246	H	0.299864	0.987011	0.63496
247	H	0.315886	0.12891	0.622327
248	H	0.190674	0.374995	0.625652
249	C	0.154017	0.2432	0.330604
250	C	0.134836	0.234635	0.370538
251	N	0.113451	0.252388	0.629697
252	H	0.145006	0.232671	0.400069
253	N	0.140916	0.250882	0.62817
254	C	0.26218	0.411669	0.331632
255	C	0.270777	0.401552	0.371941
256	C	0.2695	0.370244	0.374187
257	C	0.259113	0.3491	0.336198
258	N	0.253142	0.36174	0.631716
259	H	0.270514	0.360906	0.404864
260	H	0.272664	0.413932	0.401221
261	N	0.254513	0.390635	0.629512
262	C	0.135054	0.400301	0.372875
263	C	0.156495	0.411401	0.33519
264	N	0.144178	0.393069	0.63044
265	H	0.144133	0.410431	0.403732
266	N	0.11537	0.365492	0.627778
267	C	0.352824	0.260937	0.330861
268	C	0.371347	0.269625	0.371361
269	C	0.401365	0.268359	0.37411
270	C	0.412428	0.258042	0.336372
271	N	0.394055	0.252025	0.631659
272	H	0.411519	0.269389	0.404944
273	H	0.360681	0.271525	0.400471
274	N	0.366511	0.253326	0.629057
275	C	0.244565	0.092796	0.329485
276	C	0.235675	0.102756	0.369721
277	C	0.236866	0.134016	0.372138
278	C	0.247425	0.155322	0.33432
279	N	0.253466	0.142808	0.629787
280	H	0.235741	0.143224	0.402868
281	H	0.233698	0.090296	0.398954
282	N	0.252194	0.113971	0.627517
283	C	0.413068	0.152811	0.331623
284	C	0.402395	0.133788	0.371659
285	C	0.371067	0.10374	0.373189
286	C	0.350354	0.093526	0.334782
287	N	0.363426	0.112339	0.630574
288	H	0.361377	0.09314	0.403638
289	H	0.414467	0.144017	0.401204
290	N	0.39242	0.139804	0.62906
291	C	0.485431	0.24223	0.015549
292	C	0.464751	0.257085	0.686988
293	C	0.430802	0.241033	0.673736
294	C	0.414626	0.206396	0.663966
295	C	0.431886	0.188308	0.001249
296	C	0.46717	0.206532	0.007623
297	H	0.474457	0.28092	0.698436
298	O	0.380476	0.189269	0.65965
299	O	0.125922	0.314829	0.653757
300	O	0.482147	0.187993	0.99936
301	H	0.98826	0.191026	0.967415
302	H	0.518209	0.314105	0.968255
303	H	0.375832	0.187398	0.960645
304	H	0.129774	0.316418	0.954558
305	C	0.263602	0.244203	0.015107
306	C	0.248663	0.208624	0.685994
307	C	0.264432	0.190726	0.671516
308	C	0.298994	0.209202	0.661227
309	C	0.317307	0.244469	0.999632
310	C	0.299295	0.261606	0.007229
311	H	0.22492	0.194515	0.697813
312	O	0.31598	0.192092	0.656124
313	C	0.243291	0.260217	0.015273
314	C	0.207647	0.242783	0.006961
315	C	0.189484	0.259859	0.000284
316	C	0.207605	0.295197	0.662958
317	C	0.242179	0.313682	0.673126
318	C	0.258132	0.295756	0.68673
319	O	0.190474	0.312213	0.658535
320	H	0.281894	0.30985	0.698456
321	O	0.318074	0.295277	0.000358
322	O	0.189097	0.209252	0.998815
323	H	0.315395	0.299129	0.968573
324	H	0.192248	0.206098	0.966936
325	H	0.317838	0.189728	0.957005
326	H	0.188674	0.315002	0.959517
327	C	0.261401	0.020521	0.014917
328	C	0.296967	0.041254	0.68597
329	C	0.314885	0.074876	0.671215
330	C	0.296371	0.090821	0.660269
331	C	0.261092	0.073822	0.99852
332	C	0.243992	0.038737	0.006512
333	H	0.311074	0.031696	0.698041
334	O	0.313422	0.12488	0.654818
335	C	0.245367	0.484189	0.015364
336	C	0.262763	0.465862	0.007699
337	C	0.245631	0.43064	0.00068
338	C	0.210324	0.413561	0.662747
339	C	0.191881	0.429735	0.672654
340	C	0.209796	0.463557	0.686459
341	O	0.193223	0.379436	0.658049
342	H	0.19568	0.473248	0.698014
343	O	0.210345	0.023796	0.999357
344	O	0.296365	0.480756	0.000184
345	H	0.206625	0.517139	0.967609
346	H	0.299864	0.987011	0.968292
347	H	0.315886	0.12891	0.955663
348	H	0.190674	0.374995	0.958984
349	C	0.154017	0.2432	0.663939
350	C	0.134836	0.234635	0.703873
351	N	0.113451	0.252388	0.963029
352	H	0.145006	0.232671	0.733401
353	N	0.140916	0.250882	0.961505
354	C	0.26218	0.411669	0.664967
355	C	0.270777	0.401552	0.705276
356	C	0.2695	0.370244	0.707519
357	C	0.259113	0.3491	0.66953
358	N	0.253142	0.36174	0.965048
359	H	0.270514	0.360906	0.738196
360	H	0.272664	0.413932	0.734553
361	N	0.254513	0.390635	0.962845
362	C	0.135054	0.400301	0.706207
363	C	0.156495	0.411401	0.668526
364	N	0.144178	0.393069	0.963772
365	H	0.144133	0.410431	0.737064
366	N	0.11537	0.365492	0.961114
367	C	0.352824	0.260937	0.664193
368	C	0.371347	0.269625	0.704693
369	C	0.401365	0.268359	0.707442
370	C	0.412428	0.258042	0.669705
371	N	0.394055	0.252025	0.964994
372	H	0.411519	0.269389	0.738276
373	H	0.360681	0.271525	0.733803
374	N	0.366511	0.253326	0.962389
375	C	0.244565	0.092796	0.662817
376	C	0.235675	0.102756	0.703056
377	C	0.236866	0.134016	0.705474
378	C	0.247425	0.155322	0.667652
379	N	0.253466	0.142808	0.963119
380	H	0.235741	0.143224	0.7362
381	H	0.233698	0.090296	0.732289
382	N	0.252194	0.113971	0.960852
383	C	0.413068	0.152811	0.664957
384	C	0.402395	0.133788	0.704995
385	C	0.371067	0.10374	0.706522
386	C	0.350354	0.093526	0.668114
387	N	0.363426	0.112339	0.963909
388	H	0.361377	0.09314	0.736974
389	H	0.414467	0.144017	0.734536
390	N	0.39242	0.139804	0.962396
391	C	0.485431	0.742229	0.348881
392	C	0.464751	0.757085	0.020322
393	C	0.430803	0.741033	0.007068
394	C	0.414624	0.706395	0.997301
395	C	0.431886	0.688308	0.334583
396	C	0.467169	0.706532	0.340956
397	H	0.474457	0.78092	0.03177
398	O	0.380476	0.689268	0.992985
399	O	0.125922	0.81483	0.987092
400	O	0.482146	0.687993	0.332694
401	H	0.988259	0.691025	0.300749
402	H	0.51821	0.814105	0.30159
403	H	0.375831	0.687399	0.293978
404	H	0.129775	0.816418	0.28789
405	C	0.263602	0.744204	0.348439
406	C	0.248663	0.708623	0.019325
407	C	0.264432	0.690727	0.004848
408	C	0.298993	0.709201	0.994559
409	C	0.317307	0.744469	0.332966
410	C	0.299295	0.761606	0.340561
411	H	0.224921	0.694516	0.031145
412	O	0.315979	0.692093	0.989456
413	C	0.243291	0.760217	0.348607
414	C	0.207646	0.742783	0.340293
415	C	0.189484	0.759859	0.333616
416	C	0.207605	0.795197	0.99629
417	C	0.242179	0.813682	0.006458
418	C	0.258132	0.795756	0.020062
419	O	0.190474	0.812213	0.99187
420	H	0.281894	0.80985	0.03179
421	O	0.318074	0.795277	0.333691
422	O	0.189097	0.709252	0.332147
423	H	0.315395	0.799129	0.301906
424	H	0.192248	0.706096	0.30027
425	H	0.317837	0.689727	0.290339
426	H	0.188675	0.815002	0.292849
427	C	0.261401	0.520522	0.348252
428	C	0.296966	0.541252	0.019303
429	C	0.314886	0.574876	0.004547
430	C	0.296371	0.59082	0.993601
431	C	0.261091	0.573821	0.331853
432	C	0.243993	0.538736	0.339844
433	H	0.311074	0.531697	0.031373
434	O	0.313423	0.62488	0.988154
435	C	0.245366	0.984189	0.348697
436	C	0.262763	0.965863	0.341033
437	C	0.245632	0.93064	0.334012
438	C	0.210324	0.913561	0.996079
439	C	0.191881	0.929735	0.005986
440	C	0.209796	0.963557	0.019792
441	O	0.193224	0.879436	0.991382
442	H	0.19568	0.973248	0.031348
443	O	0.210344	0.523795	0.332689
444	O	0.296365	0.980756	0.333517
445	H	0.206625	0.017138	0.300943
446	H	0.299864	0.487011	0.301626
447	H	0.315885	0.62891	0.288995
448	H	0.190674	0.874995	0.292319
449	C	0.154016	0.743199	0.997271
450	C	0.134835	0.734635	0.037206
451	N	0.11345	0.752386	0.296363
452	H	0.145006	0.732671	0.066734
453	N	0.140917	0.750882	0.294837
454	C	0.26218	0.911669	0.998299
455	C	0.270777	0.901552	0.038608
456	C	0.2695	0.870244	0.040852
457	C	0.259113	0.8491	0.002865
458	N	0.253141	0.861738	0.298382
459	H	0.270514	0.860906	0.07153
460	H	0.272665	0.913932	0.067886
461	N	0.254513	0.890636	0.296179
462	C	0.135053	0.900301	0.039541
463	C	0.156496	0.911401	0.001858
464	N	0.144179	0.893069	0.297107
465	H	0.144132	0.910428	0.070398
466	N	0.11537	0.865492	0.294446
467	C	0.352824	0.760937	0.997529
468	C	0.371346	0.769625	0.038028
469	C	0.401365	0.76836	0.040777
470	C	0.412428	0.758042	0.003037
471	N	0.394054	0.752023	0.298326
472	H	0.411518	0.769387	0.071609
473	H	0.360681	0.771525	0.067137
474	N	0.366512	0.753326	0.295723
475	C	0.244566	0.592797	0.996153
476	C	0.235675	0.602756	0.036388
477	C	0.236866	0.634017	0.038806
478	C	0.247425	0.655321	0.000988
479	N	0.253466	0.642808	0.296453
480	H	0.235741	0.643224	0.069533
481	H	0.233697	0.590296	0.065622
482	N	0.252193	0.613971	0.294185
483	C	0.413067	0.65281	0.998289
484	C	0.402396	0.633789	0.038326
485	C	0.371067	0.603739	0.039856
486	C	0.350354	0.593526	0.00145
487	N	0.363427	0.612339	0.297242
488	H	0.361376	0.593141	0.070306
489	H	0.414467	0.644016	0.06787
490	N	0.392419	0.639803	0.295728
491	C	0.485431	0.742229	0.682217
492	C	0.464751	0.757085	0.353656
493	C	0.430803	0.741033	0.3404
494	C	0.414624	0.706395	0.330634
495	C	0.431886	0.688308	0.667917
496	C	0.467169	0.706532	0.674288
497	H	0.474457	0.78092	0.365103
498	O	0.380476	0.689268	0.326317
499	O	0.125922	0.81483	0.320425
500	O	0.482146	0.687993	0.666028
501	H	0.988259	0.691025	0.634083
502	H	0.51821	0.814105	0.634923
503	H	0.375831	0.687399	0.627313
504	H	0.129775	0.816418	0.621222
505	C	0.263602	0.744204	0.681775
506	C	0.248663	0.708623	0.352658
507	C	0.264432	0.690727	0.33818
508	C	0.298993	0.709201	0.327893
509	C	0.317307	0.744469	0.666299
510	C	0.299295	0.761606	0.673897
511	H	0.224921	0.694516	0.364477
512	O	0.315979	0.692093	0.322791
513	C	0.243291	0.760217	0.681939
514	C	0.207646	0.742783	0.673629
515	C	0.189484	0.759859	0.666949
516	C	0.207605	0.795197	0.329624
517	C	0.242179	0.813682	0.339791
518	C	0.258132	0.795756	0.353395
519	O	0.190474	0.812213	0.325202
520	H	0.281894	0.80985	0.365124
521	O	0.318074	0.795277	0.667026
522	O	0.189097	0.709252	0.665479
523	H	0.315395	0.799129	0.635238
524	H	0.192248	0.706096	0.633604
525	H	0.317837	0.689727	0.623673
526	H	0.188675	0.815002	0.626184
527	C	0.261401	0.520522	0.681584
528	C	0.296966	0.541252	0.352638
529	C	0.314886	0.574876	0.337879
530	C	0.296371	0.59082	0.326935
531	C	0.261091	0.573821	0.665188
532	C	0.243993	0.538736	0.67318
533	H	0.311074	0.531697	0.364705
534	O	0.313423	0.62488	0.321487
535	C	0.245366	0.984189	0.682033
536	C	0.262763	0.965863	0.674365
537	C	0.245632	0.93064	0.667344
538	C	0.210324	0.913561	0.329412
539	C	0.191881	0.929735	0.339319
540	C	0.209796	0.963557	0.353124
541	O	0.193224	0.879436	0.324715
542	H	0.19568	0.973248	0.364682
543	O	0.210344	0.523795	0.666021
544	O	0.296365	0.980756	0.666852
545	H	0.206625	0.017138	0.634277
546	H	0.299864	0.487011	0.63496
547	H	0.315885	0.62891	0.622327
548	H	0.190674	0.874995	0.625652
549	C	0.154016	0.743199	0.330604
550	C	0.134835	0.734635	0.370538
551	N	0.11345	0.752386	0.629697
552	H	0.145006	0.732671	0.400069
553	N	0.140917	0.750882	0.62817
554	C	0.26218	0.911669	0.331632
555	C	0.270777	0.901552	0.371941
556	C	0.2695	0.870244	0.374187
557	C	0.259113	0.8491	0.336198
558	N	0.253141	0.861738	0.631716
559	H	0.270514	0.860906	0.404864
560	H	0.272665	0.913932	0.401221
561	N	0.254513	0.890636	0.629512
562	C	0.135053	0.900301	0.372875
563	C	0.156496	0.911401	0.33519
564	N	0.144179	0.893069	0.63044
565	H	0.144132	0.910428	0.403732
566	N	0.11537	0.865492	0.627778
567	C	0.352824	0.760937	0.330861
568	C	0.371346	0.769625	0.371361
569	C	0.401365	0.76836	0.37411
570	C	0.412428	0.758042	0.336369
571	N	0.394054	0.752023	0.631659
572	H	0.411518	0.769387	0.404941
573	H	0.360681	0.771525	0.400471
574	N	0.366512	0.753326	0.629057
575	C	0.244566	0.592797	0.329485
576	C	0.235675	0.602756	0.369721
577	C	0.236866	0.634017	0.372138
578	C	0.247425	0.655321	0.33432
579	N	0.253466	0.642808	0.629787
580	H	0.235741	0.643224	0.402868
581	H	0.233697	0.590296	0.398954
582	N	0.252193	0.613971	0.627517
583	C	0.413067	0.65281	0.331623
584	C	0.402396	0.633789	0.371659
585	C	0.371067	0.603739	0.373189
586	C	0.350354	0.593526	0.334782
587	N	0.363427	0.612339	0.630574
588	H	0.361376	0.593141	0.403638
589	H	0.414467	0.644016	0.401204
590	N	0.392419	0.639803	0.62906
591	C	0.485431	0.742229	0.015549
592	C	0.464751	0.757085	0.686988
593	C	0.430803	0.741033	0.673736
594	C	0.414624	0.706395	0.663966
595	C	0.431886	0.688308	0.001249
596	C	0.467169	0.706532	0.007623
597	H	0.474457	0.78092	0.698436
598	O	0.380476	0.689268	0.65965
599	O	0.125922	0.81483	0.653757
600	O	0.482146	0.687993	0.99936
601	H	0.988259	0.691025	0.967415
602	H	0.51821	0.814105	0.968255
603	H	0.375831	0.687399	0.960645
604	H	0.129775	0.816418	0.954558
605	C	0.263602	0.744204	0.015107
606	C	0.248663	0.708623	0.685994
607	C	0.264432	0.690727	0.671516
608	C	0.298993	0.709201	0.661227
609	C	0.317307	0.744469	0.999632
610	C	0.299295	0.761606	0.007229
611	H	0.224921	0.694516	0.697813
612	O	0.315979	0.692093	0.656124
613	C	0.243291	0.760217	0.015273
614	C	0.207646	0.742783	0.006961
615	C	0.189484	0.759859	0.000284
616	C	0.207605	0.795197	0.662958
617	C	0.242179	0.813682	0.673126
618	C	0.258132	0.795756	0.68673
619	O	0.190474	0.812213	0.658535
620	H	0.281894	0.80985	0.698456
621	O	0.318074	0.795277	0.000358
622	O	0.189097	0.709252	0.998815
623	H	0.315395	0.799129	0.968573
624	H	0.192248	0.706096	0.966936
625	H	0.317837	0.689727	0.957005
626	H	0.188675	0.815002	0.959517
627	C	0.261401	0.520522	0.014917
628	C	0.296966	0.541252	0.68597
629	C	0.314886	0.574876	0.671215
630	C	0.296371	0.59082	0.660269
631	C	0.261091	0.573821	0.99852
632	C	0.243993	0.538736	0.006512
633	H	0.311074	0.531697	0.698041
634	O	0.313423	0.62488	0.654822
635	C	0.245366	0.984189	0.015364
636	C	0.262763	0.965863	0.007699
637	C	0.245632	0.93064	0.00068
638	C	0.210324	0.913561	0.662747
639	C	0.191881	0.929735	0.672654
640	C	0.209796	0.963557	0.686459
641	O	0.193224	0.879436	0.658049
642	H	0.19568	0.973248	0.698014
643	O	0.210344	0.523795	0.999357
644	O	0.296365	0.980756	0.000184
645	H	0.206625	0.017138	0.967609
646	H	0.299864	0.487011	0.968292
647	H	0.315885	0.62891	0.955663
648	H	0.190674	0.874995	0.958984
649	C	0.154016	0.743199	0.663939
650	C	0.134835	0.734635	0.703873
651	N	0.11345	0.752386	0.963029
652	H	0.145006	0.732671	0.733401
653	N	0.140917	0.750882	0.961505
654	C	0.26218	0.911669	0.664967
655	C	0.270777	0.901552	0.705276
656	C	0.2695	0.870244	0.707519
657	C	0.259113	0.8491	0.66953
658	N	0.253141	0.861738	0.965048
659	H	0.270514	0.860906	0.738196
660	H	0.272665	0.913932	0.734553
661	N	0.254513	0.890636	0.962845
662	C	0.135053	0.900301	0.706207
663	C	0.156496	0.911401	0.668526
664	N	0.144179	0.893069	0.963772
665	H	0.144132	0.910428	0.737064
666	N	0.11537	0.865492	0.961114
667	C	0.352824	0.760937	0.664193
668	C	0.371346	0.769625	0.704693
669	C	0.401365	0.76836	0.707442
670	C	0.412428	0.758042	0.669705
671	N	0.394054	0.752023	0.964994
672	H	0.411518	0.769387	0.738276
673	H	0.360681	0.771525	0.733803
674	N	0.366512	0.753326	0.962389
675	C	0.244566	0.592797	0.662817
676	C	0.235675	0.602756	0.703056
677	C	0.236866	0.634017	0.705474
678	C	0.247425	0.655321	0.667652
679	N	0.253466	0.642808	0.963119
680	H	0.235741	0.643224	0.7362
681	H	0.233697	0.590296	0.732289
682	N	0.252193	0.613971	0.960852
683	C	0.413067	0.65281	0.664957
684	C	0.402396	0.633789	0.704995
685	C	0.371067	0.603739	0.706522
686	C	0.350354	0.593526	0.668114
687	N	0.363427	0.612339	0.963909
688	H	0.361376	0.593141	0.736974
689	H	0.414467	0.644016	0.734536
690	N	0.392419	0.639803	0.962396
691	C	0.985431	0.24223	0.348881
692	C	0.964751	0.257085	0.020322
693	C	0.930802	0.241033	0.007068
694	C	0.914626	0.206396	0.997301
695	C	0.931886	0.188308	0.334583
696	C	0.96717	0.206532	0.340956
697	H	0.974457	0.28092	0.03177
698	O	0.880476	0.189269	0.992985
699	C	0.521752	0.262586	0.348248
700	C	0.539957	0.298239	0.340069
701	C	0.574995	0.316198	0.331616
702	C	0.591889	0.297853	0.992875
703	C	0.576	0.263407	0.003879
704	C	0.542484	0.247742	0.019029
705	O	0.625921	0.314829	0.987092
706	H	0.532961	0.224077	0.0311
707	O	0.982147	0.187993	0.332694
708	O	0.525019	0.316987	0.333275
709	H	0.48826	0.191026	0.300749
710	H	0.875832	0.187398	0.293978
711	H	0.629774	0.316418	0.28789
712	C	0.763602	0.244203	0.348439
713	C	0.748664	0.208624	0.019325
714	C	0.764433	0.190726	0.004848
715	C	0.798994	0.209202	0.994559
716	C	0.817307	0.244469	0.332966
717	C	0.799295	0.261606	0.340561
718	H	0.72492	0.194515	0.031145
719	O	0.81598	0.192092	0.989456
720	C	0.743291	0.260217	0.348607
721	C	0.707646	0.242783	0.340293
722	C	0.689485	0.259859	0.333616
723	C	0.707606	0.295197	0.99629
724	C	0.74218	0.313682	0.006458
725	C	0.758132	0.295756	0.020062
726	O	0.690474	0.312213	0.99187
727	H	0.781893	0.30985	0.03179
728	O	0.818074	0.295277	0.333691
729	O	0.689097	0.209252	0.332147
730	H	0.815396	0.299129	0.301906
731	H	0.692249	0.206098	0.30027
732	H	0.817838	0.189728	0.290339
733	H	0.688673	0.315002	0.292849
734	C	0.761401	0.020521	0.348252
735	C	0.796967	0.041254	0.019303
736	C	0.814885	0.074876	0.004547
737	C	0.796371	0.090821	0.993601
738	C	0.761092	0.073822	0.331853
739	C	0.743992	0.038737	0.339844
740	H	0.811074	0.031696	0.031373
741	O	0.813422	0.12488	0.988154
742	C	0.745368	0.484189	0.348697
743	C	0.762762	0.465862	0.341033
744	C	0.745631	0.43064	0.334012
745	C	0.710325	0.413561	0.996079
746	C	0.691882	0.429735	0.005986
747	C	0.709797	0.463557	0.019792
748	O	0.693223	0.379436	0.991382
749	H	0.695679	0.473248	0.031348
750	O	0.710345	0.023796	0.332689
751	O	0.796366	0.480756	0.333517
752	H	0.706625	0.517139	0.300943
753	H	0.799863	0.987011	0.301626
754	H	0.815886	0.12891	0.288994
755	H	0.690673	0.374995	0.292319
756	C	0.654018	0.2432	0.997271
757	C	0.634836	0.234635	0.037206
758	C	0.604778	0.235886	0.038819
759	C	0.594617	0.246578	0.000546
760	N	0.613452	0.252388	0.296363
761	H	0.594154	0.234853	0.069293
762	H	0.645005	0.232671	0.066734
763	N	0.640915	0.250882	0.294837
764	C	0.76218	0.411669	0.998299
765	C	0.770777	0.401552	0.038608
766	C	0.769499	0.370244	0.040852
767	C	0.759112	0.3491	0.002865
768	N	0.753142	0.36174	0.298382
769	H	0.770515	0.360906	0.071529
770	H	0.772664	0.413932	0.067886
771	N	0.754513	0.390635	0.296179
772	C	0.594066	0.351726	0.996226
773	C	0.603789	0.370261	0.036725
774	C	0.635054	0.400301	0.039541
775	C	0.656495	0.411401	0.001858
776	N	0.644178	0.393069	0.297107
777	H	0.644134	0.410431	0.070398
778	H	0.591205	0.359568	0.065813
779	N	0.615371	0.365492	0.294446
780	C	0.852824	0.260937	0.997529
781	C	0.871347	0.269625	0.038028
782	C	0.901365	0.268359	0.040777
783	C	0.912428	0.258042	0.003037
784	N	0.894055	0.252025	0.298326
785	H	0.911519	0.269389	0.071609
786	H	0.860681	0.271525	0.067137
787	N	0.866511	0.253326	0.295723
788	C	0.744566	0.092796	0.996153
789	C	0.735675	0.102756	0.036388
790	C	0.736866	0.134016	0.038806
791	C	0.747426	0.155322	0.000988
792	N	0.753466	0.142808	0.296453
793	H	0.735742	0.143224	0.069533
794	H	0.733697	0.090296	0.065622
795	N	0.752195	0.113971	0.294185
796	C	0.913068	0.152811	0.998289
797	C	0.902397	0.133788	0.038326
798	C	0.871067	0.10374	0.039856
799	C	0.850354	0.093526	0.00145
800	N	0.863426	0.112339	0.297241
801	H	0.861377	0.09314	0.070306
802	H	0.914467	0.144017	0.06787
803	N	0.89242	0.139804	0.295728
804	C	0.985431	0.24223	0.682217
805	C	0.964751	0.257085	0.353656
806	C	0.930802	0.241033	0.3404
807	C	0.914626	0.206396	0.330634
808	C	0.931886	0.188308	0.667917
809	C	0.96717	0.206532	0.674288
810	H	0.974457	0.28092	0.365103
811	O	0.880476	0.189269	0.326317
812	C	0.521752	0.262586	0.681581
813	C	0.539957	0.298239	0.673404
814	C	0.574995	0.316198	0.66495
815	C	0.591889	0.297853	0.326207
816	C	0.576	0.263407	0.337213
817	C	0.542484	0.247742	0.352363
818	O	0.625921	0.314829	0.320425
819	H	0.532961	0.224077	0.364434
820	O	0.982147	0.187993	0.666028
821	O	0.525019	0.316987	0.666607
822	H	0.48826	0.191026	0.634083
823	H	0.875832	0.187398	0.627313
824	H	0.629774	0.316418	0.621222
825	C	0.763602	0.244203	0.681775
826	C	0.748664	0.208624	0.352658
827	C	0.764433	0.190726	0.33818
828	C	0.798994	0.209202	0.327893
829	C	0.817307	0.244469	0.666299
830	C	0.799295	0.261606	0.673897
831	H	0.72492	0.194515	0.364477
832	O	0.81598	0.192092	0.322791
833	C	0.743291	0.260217	0.681939
834	C	0.707646	0.242783	0.673629
835	C	0.689485	0.259859	0.666949
836	C	0.707606	0.295197	0.329624
837	C	0.74218	0.313682	0.339791
838	C	0.758132	0.295756	0.353395
839	O	0.690474	0.312213	0.325202
840	H	0.781893	0.30985	0.365124
841	O	0.818074	0.295277	0.667026
842	O	0.689097	0.209252	0.665479
843	H	0.815396	0.299129	0.635238
844	H	0.692249	0.206098	0.633604
845	H	0.817838	0.189728	0.623673
846	H	0.688673	0.315002	0.626184
847	C	0.761401	0.020521	0.681584
848	C	0.796967	0.041254	0.352635
849	C	0.814885	0.074876	0.337879
850	C	0.796371	0.090821	0.326935
851	C	0.761092	0.073822	0.665188
852	C	0.743992	0.038737	0.67318
853	H	0.811074	0.031696	0.364705
854	O	0.813422	0.12488	0.321487
855	C	0.745368	0.484189	0.682033
856	C	0.762762	0.465862	0.674365
857	C	0.745631	0.43064	0.667344
858	C	0.710325	0.413561	0.329412
859	C	0.691882	0.429735	0.339319
860	C	0.709797	0.463557	0.353124
861	O	0.693223	0.379436	0.324715
862	H	0.695679	0.473248	0.364682
863	O	0.710345	0.023796	0.666021
864	O	0.796366	0.480756	0.666852
865	H	0.706625	0.517139	0.634277
866	H	0.799863	0.987011	0.63496
867	H	0.815886	0.12891	0.622327
868	H	0.690673	0.374995	0.625652
869	C	0.654018	0.2432	0.330604
870	C	0.634836	0.234635	0.370538
871	C	0.604778	0.235886	0.372151
872	C	0.594617	0.246578	0.333879
873	N	0.613452	0.252388	0.629697
874	H	0.594154	0.234853	0.402627
875	H	0.645005	0.232671	0.400069
876	N	0.640915	0.250882	0.62817
877	C	0.76218	0.411669	0.331632
878	C	0.770777	0.401552	0.371941
879	C	0.769499	0.370244	0.374187
880	C	0.759112	0.3491	0.336198
881	N	0.753142	0.36174	0.631716
882	H	0.770515	0.360906	0.404864
883	H	0.772664	0.413932	0.401221
884	N	0.754513	0.390635	0.629512
885	C	0.594066	0.351726	0.32956
886	C	0.603789	0.370261	0.370059
887	C	0.635054	0.400301	0.372875
888	C	0.656495	0.411401	0.33519
889	N	0.644178	0.393069	0.63044
890	H	0.644134	0.410431	0.403732
891	H	0.591205	0.359568	0.399145
892	N	0.615371	0.365492	0.627778
893	C	0.852824	0.260937	0.330861
894	C	0.871347	0.269625	0.371361
895	C	0.901365	0.268359	0.37411
896	C	0.912428	0.258042	0.336372
897	N	0.894055	0.252025	0.631659
898	H	0.911519	0.269389	0.404944
899	H	0.860681	0.271525	0.400471
900	N	0.866511	0.253326	0.629057
901	C	0.744566	0.092796	0.329485
902	C	0.735675	0.102756	0.369721
903	C	0.736866	0.134016	0.372138
904	C	0.747426	0.155322	0.33432
905	N	0.753466	0.142808	0.629787
906	H	0.735742	0.143224	0.402868
907	H	0.733697	0.090296	0.398954
908	N	0.752195	0.113971	0.627517
909	C	0.913068	0.152811	0.331623
910	C	0.902397	0.133788	0.371659
911	C	0.871067	0.10374	0.373189
912	C	0.850354	0.093526	0.334782
913	N	0.863426	0.112339	0.630574
914	H	0.861377	0.09314	0.403638
915	H	0.914467	0.144017	0.401204
916	N	0.89242	0.139804	0.62906
917	C	0.985431	0.24223	0.015549
918	C	0.964751	0.257085	0.686988
919	C	0.930802	0.241033	0.673736
920	C	0.914626	0.206396	0.663966
921	C	0.931886	0.188308	0.001249
922	C	0.96717	0.206532	0.007623
923	H	0.974457	0.28092	0.698436
924	O	0.880476	0.189269	0.65965
925	C	0.521752	0.262586	0.014914
926	C	0.539957	0.298239	0.006736
927	C	0.574995	0.316198	0.998282
928	C	0.591889	0.297853	0.659539
929	C	0.576	0.263407	0.670545
930	C	0.542484	0.247742	0.685696
931	O	0.625921	0.314829	0.653757
932	H	0.532961	0.224077	0.697766
933	O	0.982147	0.187993	0.99936
934	O	0.525019	0.316987	0.999943
935	H	0.48826	0.191026	0.967415
936	H	0.875832	0.187398	0.960645
937	H	0.629774	0.316418	0.954558
938	C	0.763602	0.244203	0.015107
939	C	0.748664	0.208624	0.685994
940	C	0.764433	0.190726	0.671516
941	C	0.798994	0.209202	0.661227
942	C	0.817307	0.244469	0.999632
943	C	0.799295	0.261606	0.007229
944	H	0.72492	0.194515	0.697813
945	O	0.81598	0.192092	0.656124
946	C	0.743291	0.260217	0.015273
947	C	0.707646	0.242783	0.006961
948	C	0.689485	0.259859	0.000284
949	C	0.707606	0.295197	0.662958
950	C	0.74218	0.313682	0.673126
951	C	0.758132	0.295756	0.68673
952	O	0.690474	0.312213	0.658535
953	H	0.781893	0.30985	0.698456
954	O	0.818074	0.295277	0.000358
955	O	0.689097	0.209252	0.998815
956	H	0.815396	0.299129	0.968573
957	H	0.692249	0.206098	0.966936
958	H	0.817838	0.189728	0.957005
959	H	0.688673	0.315002	0.959517
960	C	0.761401	0.020521	0.014917
961	C	0.796967	0.041254	0.68597
962	C	0.814885	0.074876	0.671215
963	C	0.796371	0.090821	0.660269
964	C	0.761092	0.073822	0.99852
965	C	0.743992	0.038737	0.006512
966	H	0.811074	0.031696	0.698041
967	O	0.813422	0.12488	0.654818
968	C	0.745368	0.484189	0.015364
969	C	0.762762	0.465862	0.007699
970	C	0.745631	0.43064	0.00068
971	C	0.710325	0.413561	0.662747
972	C	0.691882	0.429735	0.672654
973	C	0.709797	0.463557	0.686459
974	O	0.693223	0.379436	0.658049
975	H	0.695679	0.473248	0.698014
976	O	0.710345	0.023796	0.999357
977	O	0.796366	0.480756	0.000184
978	H	0.706625	0.517139	0.967609
979	H	0.799863	0.987011	0.968292
980	H	0.815886	0.12891	0.955663
981	H	0.690673	0.374995	0.958984
982	C	0.654018	0.2432	0.663939
983	C	0.634836	0.234635	0.703873
984	C	0.604778	0.235886	0.705487
985	C	0.594617	0.246578	0.667213
986	N	0.613452	0.252388	0.963029
987	H	0.594154	0.234853	0.735959
988	H	0.645005	0.232671	0.733401
989	N	0.640915	0.250882	0.961505
990	C	0.76218	0.411669	0.664967
991	C	0.770777	0.401552	0.705276
992	C	0.769499	0.370244	0.707519
993	C	0.759112	0.3491	0.66953
994	N	0.753142	0.36174	0.965048
995	H	0.770515	0.360906	0.738196
996	H	0.772664	0.413932	0.734553
997	N	0.754513	0.390635	0.962845
998	C	0.594066	0.351726	0.662894
999	C	0.603789	0.370261	0.703391
1000	C	0.635054	0.400301	0.706207
1001	C	0.656495	0.411401	0.668526
1002	N	0.644178	0.393069	0.963772
1003	H	0.644134	0.410431	0.737064
1004	H	0.591205	0.359568	0.73248
1005	N	0.615371	0.365492	0.961114
1006	C	0.852824	0.260937	0.664193
1007	C	0.871347	0.269625	0.704693
1008	C	0.901365	0.268359	0.707442
1009	C	0.912428	0.258042	0.669705
1010	N	0.894055	0.252025	0.964994
1011	H	0.911519	0.269389	0.738276
1012	H	0.860681	0.271525	0.733803
1013	N	0.866511	0.253326	0.962389
1014	C	0.744566	0.092796	0.662817
1015	C	0.735675	0.102756	0.703056
1016	C	0.736866	0.134016	0.705474
1017	C	0.747426	0.155322	0.667652
1018	N	0.753466	0.142808	0.963119
1019	H	0.735742	0.143224	0.7362
1020	H	0.733697	0.090296	0.732289
1021	N	0.752195	0.113971	0.960852
1022	C	0.913068	0.152811	0.664957
1023	C	0.902397	0.133788	0.704995
1024	C	0.871067	0.10374	0.706522
1025	C	0.850354	0.093526	0.668114
1026	N	0.863426	0.112339	0.963909
1027	H	0.861377	0.09314	0.736974
1028	H	0.914467	0.144017	0.734536
1029	N	0.89242	0.139804	0.962396
1030	C	0.985432	0.742229	0.348881
1031	C	0.964752	0.757085	0.020322
1032	C	0.930804	0.741033	0.007068
1033	C	0.914624	0.706395	0.997301
1034	C	0.931885	0.688308	0.334583
1035	C	0.967169	0.706532	0.340956
1036	H	0.974458	0.78092	0.03177
1037	O	0.880477	0.689268	0.992985
1038	C	0.521752	0.762586	0.348248
1039	C	0.539957	0.798239	0.340069
1040	C	0.574995	0.816198	0.331616
1041	C	0.591888	0.797851	0.992875
1042	C	0.575999	0.763405	0.003879
1043	C	0.542484	0.747742	0.019029
1044	O	0.625922	0.81483	0.987092
1045	H	0.532961	0.724077	0.0311
1046	O	0.982146	0.687993	0.332694
1047	O	0.525019	0.816987	0.333275
1048	H	0.488259	0.691025	0.300749
1049	H	0.875831	0.687399	0.293978
1050	H	0.629775	0.816418	0.28789
1051	C	0.763603	0.744204	0.348439
1052	C	0.748662	0.708623	0.019325
1053	C	0.764432	0.690727	0.004848
1054	C	0.798993	0.709201	0.994559
1055	C	0.817306	0.744469	0.332966
1056	C	0.799294	0.761606	0.340561
1057	H	0.724921	0.694516	0.031145
1058	O	0.815979	0.692093	0.989456
1059	C	0.743292	0.760217	0.348607
1060	C	0.707647	0.742783	0.340293
1061	C	0.689484	0.759859	0.333616
1062	C	0.707605	0.795197	0.99629
1063	C	0.742179	0.813682	0.006458
1064	C	0.758133	0.795756	0.020062
1065	O	0.690475	0.812213	0.99187
1066	H	0.781894	0.80985	0.03179
1067	O	0.818075	0.795277	0.333691
1068	O	0.689098	0.709252	0.332147
1069	H	0.815395	0.799129	0.301906
1070	H	0.692247	0.706096	0.30027
1071	H	0.817836	0.689727	0.290339
1072	H	0.688675	0.815002	0.292849
1073	C	0.761401	0.520522	0.348252
1074	C	0.796967	0.541252	0.019303
1075	C	0.814886	0.574876	0.004547
1076	C	0.796371	0.59082	0.993601
1077	C	0.761093	0.573821	0.331853
1078	C	0.743993	0.538736	0.339844
1079	H	0.811073	0.531697	0.031373
1080	O	0.813423	0.62488	0.988154
1081	C	0.745366	0.984189	0.348697
1082	C	0.762763	0.965863	0.341033
1083	C	0.745632	0.93064	0.334012
1084	C	0.710324	0.913561	0.996079
1085	C	0.691881	0.929735	0.005986
1086	C	0.709796	0.963557	0.019792
1087	O	0.693224	0.879436	0.991382
1088	H	0.69568	0.973248	0.031348
1089	O	0.710344	0.523795	0.332689
1090	O	0.796365	0.980756	0.333517
1091	H	0.706626	0.017138	0.300943
1092	H	0.799864	0.487011	0.301626
1093	H	0.815885	0.62891	0.288995
1094	H	0.690674	0.874995	0.292319
1095	C	0.654016	0.743199	0.997271
1096	C	0.634835	0.734635	0.037206
1097	C	0.604777	0.735886	0.038819
1098	C	0.594615	0.746577	0.000546
1099	N	0.61345	0.752386	0.296363
1100	H	0.594156	0.734853	0.069293
1101	H	0.645006	0.732671	0.066734
1102	N	0.640917	0.750882	0.294837
1103	C	0.762179	0.911669	0.998299
1104	C	0.770776	0.901552	0.038608
1105	C	0.769501	0.870244	0.040852
1106	C	0.759113	0.8491	0.002865
1107	N	0.753142	0.861738	0.298382
1108	H	0.770514	0.860906	0.07153
1109	H	0.772665	0.913932	0.067886
1110	N	0.754514	0.890636	0.296179
1111	C	0.594066	0.851726	0.996226
1112	C	0.603788	0.870259	0.036725
1113	C	0.635054	0.900301	0.039541
1114	C	0.656495	0.911401	0.001858
1115	N	0.644178	0.893069	0.297107
1116	H	0.644132	0.910428	0.070398
1117	H	0.591204	0.859568	0.065813
1118	N	0.61537	0.865492	0.294446
1119	C	0.852825	0.760937	0.997529
1120	C	0.871346	0.769625	0.038028
1121	C	0.901364	0.76836	0.040777
1122	C	0.912429	0.758042	0.003037
1123	N	0.894053	0.752023	0.298326
1124	H	0.911519	0.769387	0.071609
1125	H	0.86068	0.771525	0.067137
1126	N	0.866512	0.753326	0.295723
1127	C	0.744565	0.592797	0.996153
1128	C	0.735676	0.602756	0.036388
1129	C	0.736867	0.634017	0.038806
1130	C	0.747424	0.655321	0.000988
1131	N	0.753467	0.642808	0.296453
1132	H	0.735741	0.643224	0.069533
1133	H	0.733698	0.590296	0.065622
1134	N	0.752194	0.613971	0.294185
1135	C	0.913068	0.65281	0.998289
1136	C	0.902396	0.633789	0.038326
1137	C	0.871068	0.603739	0.039856
1138	C	0.850355	0.593526	0.00145
1139	N	0.863427	0.612339	0.297242
1140	H	0.861376	0.593141	0.070306
1141	H	0.914468	0.644016	0.06787
1142	N	0.892419	0.639803	0.295728
1143	C	0.985432	0.742229	0.682217
1144	C	0.964752	0.757085	0.353656
1145	C	0.930804	0.741033	0.3404
1146	C	0.914624	0.706395	0.330634
1147	C	0.931885	0.688308	0.667917
1148	C	0.967169	0.706532	0.674288
1149	H	0.974458	0.78092	0.365103
1150	O	0.880477	0.689268	0.326317
1151	C	0.521752	0.762586	0.681581
1152	C	0.539957	0.798239	0.673404
1153	C	0.574995	0.816198	0.66495
1154	C	0.591888	0.797851	0.326207
1155	C	0.575999	0.763405	0.337213
1156	C	0.542484	0.747742	0.352363
1157	O	0.625922	0.81483	0.320425
1158	H	0.532961	0.724077	0.364434
1159	O	0.982146	0.687993	0.666028
1160	O	0.525019	0.816987	0.666607
1161	H	0.488259	0.691025	0.634083
1162	H	0.875831	0.687399	0.627313
1163	H	0.629775	0.816418	0.621222
1164	C	0.763603	0.744204	0.681775
1165	C	0.748662	0.708623	0.352658
1166	C	0.764432	0.690727	0.33818
1167	C	0.798993	0.709201	0.327893
1168	C	0.817306	0.744469	0.666299
1169	C	0.799294	0.761606	0.673897
1170	H	0.724921	0.694516	0.364477
1171	O	0.815979	0.692093	0.322791
1172	C	0.743292	0.760217	0.681939
1173	C	0.707647	0.742783	0.673629
1174	C	0.689484	0.759859	0.666949
1175	C	0.707605	0.795197	0.329624
1176	C	0.742179	0.813682	0.339791
1177	C	0.758133	0.795756	0.353395
1178	O	0.690475	0.812213	0.325202
1179	H	0.781894	0.80985	0.365124
1180	O	0.818075	0.795277	0.667026
1181	O	0.689098	0.709252	0.665479
1182	H	0.815395	0.799129	0.635238
1183	H	0.692247	0.706096	0.633604
1184	H	0.817836	0.689727	0.623673
1185	H	0.688675	0.815002	0.626184
1186	C	0.761401	0.520522	0.681584
1187	C	0.796967	0.541252	0.352638
1188	C	0.814886	0.574876	0.337879
1189	C	0.796371	0.59082	0.326935
1190	C	0.761093	0.573821	0.665188
1191	C	0.743993	0.538736	0.67318
1192	H	0.811073	0.531697	0.364705
1193	O	0.813423	0.62488	0.321487
1194	C	0.745366	0.984189	0.682033
1195	C	0.762763	0.965863	0.674365
1196	C	0.745632	0.93064	0.667344
1197	C	0.710324	0.913561	0.329412
1198	C	0.691881	0.929735	0.339319
1199	C	0.709796	0.963557	0.353124
1200	O	0.693224	0.879436	0.324715
1201	H	0.69568	0.973248	0.364682
1202	O	0.710344	0.523795	0.666021
1203	O	0.796365	0.980756	0.666852
1204	H	0.706626	0.017138	0.634277
1205	H	0.799864	0.487011	0.63496
1206	H	0.815885	0.62891	0.622327
1207	H	0.690674	0.874995	0.625652
1208	C	0.654016	0.743199	0.330604
1209	C	0.634835	0.734635	0.370538
1210	C	0.604777	0.735886	0.372151
1211	C	0.594615	0.746577	0.333879
1212	N	0.61345	0.752386	0.629697
1213	H	0.594156	0.734853	0.402627
1214	H	0.645006	0.732671	0.400069
1215	N	0.640917	0.750882	0.62817
1216	C	0.762179	0.911669	0.331632
1217	C	0.770776	0.901552	0.371941
1218	C	0.769501	0.870244	0.374187
1219	C	0.759113	0.8491	0.336198
1220	N	0.753142	0.861738	0.631716
1221	H	0.770514	0.860906	0.404864
1222	H	0.772665	0.913932	0.401221
1223	N	0.754514	0.890636	0.629512
1224	C	0.594066	0.851726	0.32956
1225	C	0.603788	0.870259	0.370059
1226	C	0.635054	0.900301	0.372875
1227	C	0.656495	0.911401	0.33519
1228	N	0.644178	0.893069	0.63044
1229	H	0.644132	0.910428	0.403732
1230	H	0.591204	0.859568	0.399145
1231	N	0.61537	0.865492	0.627778
1232	C	0.852825	0.760937	0.330861
1233	C	0.871346	0.769625	0.371361
1234	C	0.901364	0.76836	0.37411
1235	C	0.912429	0.758042	0.336369
1236	N	0.894053	0.752023	0.631659
1237	H	0.911519	0.769387	0.404941
1238	H	0.86068	0.771525	0.400471
1239	N	0.866512	0.753326	0.629057
1240	C	0.744565	0.592797	0.329485
1241	C	0.735676	0.602756	0.369721
1242	C	0.736867	0.634017	0.372138
1243	C	0.747424	0.655321	0.33432
1244	N	0.753467	0.642808	0.629787
1245	H	0.735741	0.643224	0.402868
1246	H	0.733698	0.590296	0.398954
1247	N	0.752194	0.613971	0.627517
1248	C	0.913068	0.65281	0.331623
1249	C	0.902396	0.633789	0.371659
1250	C	0.871068	0.603739	0.373189
1251	C	0.850355	0.593526	0.334782
1252	N	0.863427	0.612339	0.630574
1253	H	0.861376	0.593141	0.403638
1254	H	0.914468	0.644016	0.401204
1255	N	0.892419	0.639803	0.62906
1256	C	0.985432	0.742229	0.015549
1257	C	0.964752	0.757085	0.686988
1258	C	0.930804	0.741033	0.673736
1259	C	0.914624	0.706395	0.663966
1260	C	0.931885	0.688308	0.001249
1261	C	0.967169	0.706532	0.007623
1262	H	0.974458	0.78092	0.698436
1263	O	0.880477	0.689268	0.65965
1264	C	0.521752	0.762586	0.014914
1265	C	0.539957	0.798239	0.006736
1266	C	0.574995	0.816198	0.998282
1267	C	0.591888	0.797851	0.659539
1268	C	0.575999	0.763405	0.670545
1269	C	0.542484	0.747742	0.685696
1270	O	0.625922	0.81483	0.653757
1271	H	0.532961	0.724077	0.697766
1272	O	0.982146	0.687993	0.99936
1273	O	0.525019	0.816987	0.999943
1274	H	0.488259	0.691025	0.967415
1275	H	0.875831	0.687399	0.960645
1276	H	0.629775	0.816418	0.954558
1277	C	0.763603	0.744204	0.015107
1278	C	0.748662	0.708623	0.685994
1279	C	0.764432	0.690727	0.671516
1280	C	0.798993	0.709201	0.661227
1281	C	0.817306	0.744469	0.999632
1282	C	0.799294	0.761606	0.007229
1283	H	0.724921	0.694516	0.697813
1284	O	0.815979	0.692093	0.656124
1285	C	0.743292	0.760217	0.015273
1286	C	0.707647	0.742783	0.006961
1287	C	0.689484	0.759859	0.000284
1288	C	0.707605	0.795197	0.662958
1289	C	0.742179	0.813682	0.673126
1290	C	0.758133	0.795756	0.68673
1291	O	0.690475	0.812213	0.658535
1292	H	0.781894	0.80985	0.698456
1293	O	0.818075	0.795277	0.000358
1294	O	0.689098	0.709252	0.998815
1295	H	0.815395	0.799129	0.968573
1296	H	0.692247	0.706096	0.966936
1297	H	0.817836	0.689727	0.957005
1298	H	0.688675	0.815002	0.959517
1299	C	0.761401	0.520522	0.014917
1300	C	0.796967	0.541252	0.68597
1301	C	0.814886	0.574876	0.671215
1302	C	0.796371	0.59082	0.660269
1303	C	0.761093	0.573821	0.99852
1304	C	0.743993	0.538736	0.006512
1305	H	0.811073	0.531697	0.698041
1306	O	0.813423	0.62488	0.654822
1307	C	0.745366	0.984189	0.015364
1308	C	0.762763	0.965863	0.007699
1309	C	0.745632	0.93064	0.00068
1310	C	0.710324	0.913561	0.662747
1311	C	0.691881	0.929735	0.672654
1312	C	0.709796	0.963557	0.686459
1313	O	0.693224	0.879436	0.658049
1314	H	0.69568	0.973248	0.698014
1315	O	0.710344	0.523795	0.999357
1316	O	0.796365	0.980756	0.000184
1317	H	0.706626	0.017138	0.967609
1318	H	0.799864	0.487011	0.968292
1319	H	0.815885	0.62891	0.955663
1320	H	0.690674	0.874995	0.958984
1321	C	0.654016	0.743199	0.663939
1322	C	0.634835	0.734635	0.703873
1323	C	0.604777	0.735886	0.705487
1324	C	0.594615	0.746577	0.667213
1325	N	0.61345	0.752386	0.963029
1326	H	0.594156	0.734853	0.735959
1327	H	0.645006	0.732671	0.733401
1328	N	0.640917	0.750882	0.961505
1329	C	0.762179	0.911669	0.664967
1330	C	0.770776	0.901552	0.705276
1331	C	0.769501	0.870244	0.707519
1332	C	0.759113	0.8491	0.66953
1333	N	0.753142	0.861738	0.965048
1334	H	0.770514	0.860906	0.738196
1335	H	0.772665	0.913932	0.734553
1336	N	0.754514	0.890636	0.962845
1337	C	0.594066	0.851726	0.662894
1338	C	0.603788	0.870259	0.703391
1339	C	0.635054	0.900301	0.706207
1340	C	0.656495	0.911401	0.668526
1341	N	0.644178	0.893069	0.963772
1342	H	0.644132	0.910428	0.737064
1343	H	0.591204	0.859568	0.73248
1344	N	0.61537	0.865492	0.961114
1345	C	0.852825	0.760937	0.664193
1346	C	0.871346	0.769625	0.704693
1347	C	0.901364	0.76836	0.707442
1348	C	0.912429	0.758042	0.669705
1349	N	0.894053	0.752023	0.964994
1350	H	0.911519	0.769387	0.738276
1351	H	0.86068	0.771525	0.733803
1352	N	0.866512	0.753326	0.962389
1353	C	0.744565	0.592797	0.662817
1354	C	0.735676	0.602756	0.703056
1355	C	0.736867	0.634017	0.705474
1356	C	0.747424	0.655321	0.667652
1357	N	0.753467	0.642808	0.963119
1358	H	0.735741	0.643224	0.7362
1359	H	0.733698	0.590296	0.732289
1360	N	0.752194	0.613971	0.960852
1361	C	0.913068	0.65281	0.664957
1362	C	0.902396	0.633789	0.704995
1363	C	0.871068	0.603739	0.706522
1364	C	0.850355	0.593526	0.668114
1365	N	0.863427	0.612339	0.963909
1366	H	0.861376	0.593141	0.736974
1367	H	0.914468	0.644016	0.734536
1368	N	0.892419	0.639803	0.962396
