data_C612H324N132_2018-02-15_10:41:00
#******************************************
#
# CIF file created by Zeo++
# Zeo++ is an open source package to
# analyze microporous materials
#
#*******************************************

_cell_length_a		49.9368   
_cell_length_b		49.9368   
_cell_length_c		29.034   
_cell_angle_alpha		90   
_cell_angle_beta		90   
_cell_angle_gamma		120   

_symmetry_space_group_name_H-M		'P1'
_symmetry_Int_Tables_number		1
_symmetry_cell_setting		Monoclinic

loop_
_symmetry_equiv_pos_as_xyz
'+x,+y,+z'

loop_
_atom_site_label
_atom_site_type_symbol
_atom_site_fract_x
_atom_site_fract_y
_atom_site_fract_z
1	N	0.190856	0.349994	0.014629
2	C	0.20739	0.333447	0.014123
3	C	0.207298	0.383076	0.014636
4	C	0.15778	0.333442	0.014863
5	C	0.141011	0.3326	0.054501
6	C	0.108338	0.316234	0.054661
7	C	0.090849	0.300281	0.015111
8	C	0.108103	0.301296	0.975554
9	C	0.140779	0.317401	0.975448
10	C	0.224408	0.333761	0.9751
11	C	0.240658	0.317327	0.974697
12	C	0.240777	0.299867	0.013279
13	C	0.223735	0.300034	0.052397
14	C	0.207347	0.31631	0.052804
15	C	0.224828	0.400049	0.053124
16	C	0.241014	0.432722	0.052996
17	C	0.24045	0.450106	0.014571
18	C	0.22279	0.432588	0.976054
19	C	0.206607	0.399914	0.976057
20	H	0.252991	0.318904	0.945772
21	H	0.225041	0.346086	0.946585
22	H	0.195344	0.315683	0.081705
23	H	0.222708	0.287866	0.081324
24	H	0.152637	0.343905	0.083679
25	H	0.097386	0.31656	0.084248
26	H	0.225782	0.388575	0.081683
27	H	0.253136	0.443728	0.082014
28	H	0.221764	0.443328	0.946778
29	H	0.194344	0.388327	0.947449
30	H	0.152244	0.317466	0.946223
31	H	0.097091	0.289714	0.946251
32	N	0.357687	0.183338	0.015156
33	C	0.340425	0.199266	0.016096
34	C	0.341816	0.150254	0.016795
35	C	0.390802	0.200146	0.017682
36	C	0.406621	0.219988	0.054958
37	C	0.439285	0.236826	0.056639
38	C	0.45778	0.234128	0.021801
39	C	0.441547	0.214413	0.984234
40	C	0.408908	0.197927	0.982116
41	C	0.319321	0.194388	0.051944
42	C	0.302425	0.210113	0.05296
43	C	0.306571	0.232488	0.019291
44	C	0.327616	0.236956	0.983142
45	C	0.344015	0.220664	0.98142
46	C	0.335987	0.134375	0.059105
47	C	0.319604	0.101741	0.060827
48	C	0.30922	0.083348	0.02034
49	C	0.315162	0.099713	0.978048
50	C	0.330933	0.132373	0.976271
51	H	0.286406	0.204294	0.07847
52	H	0.315709	0.178854	0.077459
53	H	0.359096	0.224861	0.95491
54	H	0.331633	0.252652	0.957624
55	H	0.394298	0.222677	0.080877
56	H	0.449369	0.251868	0.083364
57	H	0.343061	0.146636	0.089178
58	H	0.314624	0.091645	0.092586
59	H	0.30822	0.087895	0.947577
60	H	0.334693	0.143169	0.945062
61	H	0.398304	0.184021	0.954341
62	H	0.453437	0.211508	0.957847
63	C	0.289926	0.249389	0.020349
64	N	0.28313	0.258141	0.312769
65	C	0.267825	0.274147	0.307748
66	C	0.257411	0.283022	0.013799
67	N	0.264363	0.274464	0.054649
68	C	0.279652	0.258474	0.060086
69	H	0.263636	0.278816	0.275202
70	C	0.284977	0.254349	0.102554
71	N	0.289303	0.250749	0.140305
72	C	0.292623	0.049814	0.02124
73	N	0.271106	0.034382	0.321113
74	C	0.253758	0.503095	0.31676
75	C	0.257327	0.483635	0.015322
76	N	0.278925	0.499086	0.048606
77	C	0.296313	0.030355	0.053427
78	H	0.238098	0.494452	0.290577
79	C	0.316511	0.039775	0.086526
80	N	0.334107	0.047737	0.116117
81	C	0.491305	0.250961	0.022807
82	N	0.506792	0.259984	0.315204
83	C	0.038084	0.275569	0.310076
84	C	0.057396	0.283771	0.016031
85	N	0.041969	0.274672	0.05693
86	C	0.510669	0.259147	0.062434
87	H	0.046931	0.281542	0.277621
88	C	0.501027	0.251269	0.104487
89	N	0.49285	0.244547	0.141848
90	N	0.190856	0.349994	0.347962
91	C	0.20739	0.333447	0.347455
92	C	0.207298	0.383076	0.347968
93	C	0.15778	0.333442	0.348196
94	C	0.141011	0.3326	0.387832
95	C	0.108338	0.316234	0.387994
96	C	0.090849	0.300281	0.348444
97	C	0.108103	0.301296	0.30889
98	C	0.140779	0.317401	0.308781
99	C	0.224408	0.333761	0.308435
100	C	0.240658	0.317327	0.308031
101	C	0.240777	0.299867	0.346615
102	C	0.223735	0.300034	0.385731
103	C	0.207347	0.31631	0.386138
104	C	0.224828	0.400049	0.386458
105	C	0.241014	0.432722	0.386327
106	C	0.24045	0.450106	0.347906
107	C	0.22279	0.432588	0.309387
108	C	0.206607	0.399914	0.309393
109	H	0.252991	0.318904	0.279107
110	H	0.225041	0.346086	0.279921
111	H	0.195344	0.315683	0.415038
112	H	0.222708	0.287866	0.414656
113	H	0.152637	0.343905	0.417012
114	H	0.097386	0.31656	0.41758
115	H	0.225782	0.388575	0.415018
116	H	0.253136	0.443728	0.415348
117	H	0.221764	0.443328	0.280111
118	H	0.194344	0.388327	0.280783
119	H	0.152244	0.317466	0.279559
120	H	0.097091	0.289714	0.279586
121	N	0.357687	0.183338	0.348489
122	C	0.340425	0.199266	0.349432
123	C	0.341816	0.150254	0.350128
124	C	0.390802	0.200146	0.351013
125	C	0.406621	0.219988	0.38829
126	C	0.439285	0.236826	0.389971
127	C	0.45778	0.234128	0.355132
128	C	0.441547	0.214413	0.317569
129	C	0.408908	0.197927	0.31545
130	C	0.319321	0.194388	0.385276
131	C	0.302425	0.210113	0.386293
132	C	0.306571	0.232488	0.352625
133	C	0.327616	0.236956	0.316478
134	C	0.344015	0.220664	0.314755
135	C	0.335987	0.134375	0.392437
136	C	0.319604	0.101741	0.394159
137	C	0.30922	0.083348	0.353672
138	C	0.315162	0.099713	0.311381
139	C	0.330933	0.132373	0.309605
140	H	0.286406	0.204294	0.411801
141	H	0.315709	0.178854	0.410791
142	H	0.359096	0.224861	0.288245
143	H	0.331633	0.252652	0.290958
144	H	0.394298	0.222677	0.414212
145	H	0.449369	0.251868	0.416698
146	H	0.343061	0.146636	0.422512
147	H	0.314624	0.091645	0.425919
148	H	0.30822	0.087895	0.28091
149	H	0.334693	0.143169	0.278396
150	H	0.398304	0.184021	0.287676
151	H	0.453437	0.211508	0.291182
152	C	0.289926	0.249389	0.353682
153	N	0.28313	0.258141	0.646102
154	C	0.267825	0.274147	0.64108
155	C	0.257411	0.283022	0.347135
156	N	0.264363	0.274464	0.387984
157	C	0.279652	0.258474	0.393419
158	H	0.263636	0.278816	0.608536
159	C	0.284977	0.254349	0.435886
160	N	0.289303	0.250749	0.473639
161	C	0.292623	0.049814	0.354574
162	N	0.271106	0.034382	0.654448
163	C	0.253758	0.503095	0.650094
164	C	0.257327	0.483635	0.348654
165	N	0.278925	0.499086	0.381939
166	C	0.296313	0.030355	0.386761
167	H	0.238098	0.494452	0.623911
168	C	0.316511	0.039775	0.41986
169	N	0.334107	0.047737	0.44945
170	C	0.491305	0.250961	0.356138
171	N	0.506792	0.259984	0.648537
172	C	0.038084	0.275569	0.643409
173	C	0.057396	0.283771	0.349367
174	N	0.041969	0.274672	0.390264
175	C	0.510669	0.259147	0.395768
176	H	0.046931	0.281542	0.610954
177	C	0.501027	0.251269	0.437818
178	N	0.49285	0.244547	0.475182
179	N	0.190856	0.349994	0.681295
180	C	0.20739	0.333447	0.680789
181	C	0.207298	0.383076	0.681302
182	C	0.15778	0.333442	0.68153
183	C	0.141011	0.3326	0.721166
184	C	0.108338	0.316234	0.721328
185	C	0.090849	0.300281	0.681778
186	C	0.108103	0.301296	0.642224
187	C	0.140779	0.317401	0.642114
188	C	0.224408	0.333761	0.641769
189	C	0.240658	0.317327	0.641363
190	C	0.240777	0.299867	0.679949
191	C	0.223735	0.300034	0.719062
192	C	0.207347	0.31631	0.719468
193	C	0.224828	0.400049	0.719788
194	C	0.241014	0.432722	0.719661
195	C	0.24045	0.450106	0.681237
196	C	0.22279	0.432588	0.64272
197	C	0.206607	0.399914	0.642727
198	H	0.252991	0.318904	0.612442
199	H	0.225041	0.346086	0.613254
200	H	0.195344	0.315683	0.748372
201	H	0.222708	0.287866	0.74799
202	H	0.152637	0.343905	0.750346
203	H	0.097386	0.31656	0.750914
204	H	0.225782	0.388575	0.748348
205	H	0.253136	0.443728	0.748679
206	H	0.221764	0.443328	0.613444
207	H	0.194344	0.388327	0.614115
208	H	0.152244	0.317466	0.612893
209	H	0.097091	0.289714	0.61292
210	N	0.357687	0.183338	0.681822
211	C	0.340425	0.199266	0.682763
212	C	0.341816	0.150254	0.683462
213	C	0.390802	0.200146	0.684347
214	C	0.406621	0.219988	0.721624
215	C	0.439285	0.236826	0.723305
216	C	0.45778	0.234128	0.688466
217	C	0.441547	0.214413	0.650903
218	C	0.408908	0.197927	0.648782
219	C	0.319321	0.194388	0.71861
220	C	0.302425	0.210113	0.719626
221	C	0.306571	0.232488	0.685955
222	C	0.327616	0.236956	0.649812
223	C	0.344015	0.220664	0.648089
224	C	0.335987	0.134375	0.725771
225	C	0.319604	0.101741	0.727493
226	C	0.30922	0.083348	0.687006
227	C	0.315162	0.099713	0.644714
228	C	0.330933	0.132373	0.642937
229	H	0.286406	0.204294	0.745134
230	H	0.315709	0.178854	0.744125
231	H	0.359096	0.224861	0.621579
232	H	0.331633	0.252652	0.62429
233	H	0.394298	0.222677	0.747542
234	H	0.449369	0.251868	0.750029
235	H	0.343061	0.146636	0.755843
236	H	0.314624	0.091645	0.759252
237	H	0.30822	0.087895	0.614243
238	H	0.334693	0.143169	0.611729
239	H	0.398304	0.184021	0.621007
240	H	0.453437	0.211508	0.624514
241	C	0.289926	0.249389	0.687013
242	N	0.28313	0.258141	0.979436
243	C	0.267825	0.274147	0.974414
244	C	0.257411	0.283022	0.680469
245	N	0.264363	0.274464	0.721314
246	C	0.279652	0.258474	0.726753
247	H	0.263636	0.278816	0.94187
248	C	0.284977	0.254349	0.76922
249	N	0.289303	0.250749	0.806972
250	C	0.292623	0.049814	0.687905
251	N	0.271106	0.034382	0.987778
252	C	0.253758	0.503095	0.983424
253	C	0.257327	0.483635	0.681988
254	N	0.278925	0.499086	0.715269
255	C	0.296313	0.030355	0.720091
256	H	0.238098	0.494452	0.957245
257	C	0.316511	0.039775	0.753191
258	N	0.334107	0.047737	0.782783
259	C	0.491305	0.250961	0.689472
260	N	0.506792	0.259984	0.981871
261	C	0.038084	0.275569	0.976743
262	C	0.057396	0.283771	0.682701
263	N	0.041969	0.274672	0.723594
264	C	0.510669	0.259147	0.729101
265	H	0.046931	0.281542	0.944287
266	C	0.501027	0.251269	0.771152
267	N	0.49285	0.244547	0.808515
268	N	0.190857	0.849995	0.014629
269	C	0.20739	0.833446	0.014123
270	C	0.207299	0.883077	0.014636
271	C	0.15778	0.833443	0.014863
272	C	0.141011	0.832602	0.054501
273	C	0.108337	0.816233	0.054661
274	C	0.09085	0.800282	0.015111
275	C	0.108104	0.801295	0.975554
276	C	0.140779	0.817403	0.975448
277	C	0.224408	0.83376	0.9751
278	C	0.240659	0.817329	0.974697
279	C	0.240777	0.799866	0.013279
280	C	0.223736	0.800035	0.052397
281	C	0.207348	0.816311	0.052804
282	C	0.224827	0.900047	0.053124
283	C	0.241015	0.932723	0.052996
284	C	0.240451	0.950107	0.014571
285	C	0.222791	0.932589	0.976054
286	C	0.206607	0.899913	0.976057
287	H	0.252992	0.818906	0.945772
288	H	0.22504	0.846085	0.946585
289	H	0.195344	0.815685	0.081705
290	H	0.222707	0.787865	0.081324
291	H	0.152639	0.843907	0.083679
292	H	0.097384	0.816559	0.084248
293	H	0.225783	0.888574	0.081683
294	H	0.253136	0.94373	0.082014
295	H	0.221764	0.943327	0.946778
296	H	0.194343	0.888326	0.947449
297	H	0.152245	0.817467	0.946223
298	H	0.09709	0.789713	0.946251
299	N	0.357687	0.683339	0.015156
300	C	0.340426	0.699266	0.016096
301	C	0.341815	0.650254	0.016795
302	C	0.390804	0.700147	0.017682
303	C	0.406622	0.719989	0.054958
304	C	0.439284	0.736825	0.056639
305	C	0.457781	0.734129	0.021801
306	C	0.441546	0.714412	0.984234
307	C	0.408908	0.697927	0.982116
308	C	0.319321	0.694389	0.051944
309	C	0.302425	0.710113	0.05296
310	C	0.306572	0.732489	0.019291
311	C	0.327617	0.736957	0.983142
312	C	0.344016	0.720664	0.98142
313	C	0.335988	0.634375	0.059105
314	C	0.319605	0.601741	0.060827
315	C	0.309221	0.583349	0.02034
316	C	0.315163	0.599713	0.978048
317	C	0.330933	0.632373	0.976271
318	H	0.286407	0.704295	0.07847
319	H	0.315709	0.678855	0.07746
320	H	0.359096	0.724861	0.95491
321	H	0.331634	0.752653	0.957624
322	H	0.3943	0.722678	0.080877
323	H	0.44937	0.751869	0.083364
324	H	0.343061	0.646637	0.089178
325	H	0.314625	0.591646	0.092586
326	H	0.30822	0.587895	0.947577
327	H	0.334692	0.643169	0.945062
328	H	0.398304	0.684021	0.954341
329	H	0.453438	0.711507	0.957847
330	C	0.289927	0.74939	0.020349
331	N	0.283129	0.75814	0.312769
332	C	0.267824	0.774146	0.307748
333	C	0.257412	0.783023	0.013799
334	N	0.264364	0.774465	0.054649
335	C	0.279653	0.758475	0.060086
336	H	0.263635	0.778815	0.275202
337	C	0.284978	0.75435	0.102554
338	N	0.289303	0.750748	0.140305
339	C	0.292624	0.549816	0.02124
340	N	0.271105	0.534381	0.321113
341	C	0.253759	0.003096	0.31676
342	C	0.257327	0.983636	0.015322
343	N	0.278925	0.999084	0.048605
344	C	0.296314	0.530355	0.053427
345	H	0.238099	0.994453	0.290578
346	C	0.31651	0.539776	0.086526
347	N	0.334107	0.547737	0.116117
348	C	0.491307	0.750963	0.022807
349	N	0.506793	0.759985	0.315204
350	C	0.038085	0.77557	0.310076
351	C	0.057396	0.78377	0.016031
352	N	0.041969	0.774671	0.05693
353	C	0.510669	0.759146	0.062434
354	H	0.046931	0.781543	0.277621
355	C	0.501027	0.751268	0.104487
356	N	0.49285	0.744548	0.141848
357	N	0.190857	0.849995	0.347962
358	C	0.20739	0.833446	0.347455
359	C	0.207299	0.883077	0.347968
360	C	0.15778	0.833443	0.348199
361	C	0.141011	0.832602	0.387832
362	C	0.108337	0.816233	0.387994
363	C	0.09085	0.800282	0.348444
364	C	0.108104	0.801295	0.30889
365	C	0.140779	0.817403	0.308781
366	C	0.224408	0.83376	0.308435
367	C	0.240659	0.817329	0.308031
368	C	0.240777	0.799866	0.346615
369	C	0.223736	0.800035	0.385731
370	C	0.207348	0.816311	0.386138
371	C	0.224827	0.900047	0.386458
372	C	0.241015	0.932723	0.386327
373	C	0.240451	0.950107	0.347906
374	C	0.222791	0.932589	0.309387
375	C	0.206607	0.899913	0.309393
376	H	0.252992	0.818906	0.279107
377	H	0.22504	0.846085	0.279921
378	H	0.195344	0.815685	0.415038
379	H	0.222707	0.787865	0.414656
380	H	0.152639	0.843907	0.417012
381	H	0.097384	0.816559	0.41758
382	H	0.225783	0.888574	0.415018
383	H	0.253136	0.94373	0.415348
384	H	0.221764	0.943327	0.280111
385	H	0.194343	0.888326	0.280783
386	H	0.152245	0.817467	0.279559
387	H	0.09709	0.789713	0.279586
388	N	0.357687	0.683339	0.348489
389	C	0.340426	0.699266	0.349432
390	C	0.341815	0.650254	0.350128
391	C	0.390804	0.700147	0.351013
392	C	0.406622	0.719989	0.38829
393	C	0.439284	0.736825	0.389971
394	C	0.457781	0.734129	0.355132
395	C	0.441546	0.714412	0.317569
396	C	0.408908	0.697927	0.31545
397	C	0.319321	0.694389	0.385276
398	C	0.302425	0.710113	0.386293
399	C	0.306572	0.732489	0.352625
400	C	0.327617	0.736957	0.316478
401	C	0.344016	0.720664	0.314755
402	C	0.335988	0.634375	0.392437
403	C	0.319605	0.601741	0.394159
404	C	0.309221	0.583349	0.353672
405	C	0.315163	0.599713	0.311381
406	C	0.330933	0.632373	0.309605
407	H	0.286407	0.704295	0.411804
408	H	0.315709	0.678855	0.410791
409	H	0.359096	0.724861	0.288245
410	H	0.331634	0.752653	0.290958
411	H	0.3943	0.722678	0.414212
412	H	0.44937	0.751869	0.416698
413	H	0.343061	0.646637	0.422512
414	H	0.314625	0.591646	0.425919
415	H	0.30822	0.587895	0.28091
416	H	0.334692	0.643169	0.278396
417	H	0.398304	0.684021	0.287676
418	H	0.453438	0.711507	0.291183
419	C	0.289927	0.74939	0.353682
420	N	0.283129	0.75814	0.646102
421	C	0.267824	0.774146	0.64108
422	C	0.257412	0.783023	0.347135
423	N	0.264364	0.774465	0.387984
424	C	0.279653	0.758475	0.393419
425	H	0.263635	0.778815	0.608536
426	C	0.284978	0.75435	0.435886
427	N	0.289303	0.750748	0.473639
428	C	0.292624	0.549816	0.354574
429	N	0.271105	0.534381	0.654448
430	C	0.253759	0.003096	0.650094
431	C	0.257327	0.983636	0.348654
432	N	0.278925	0.999084	0.381939
433	C	0.296314	0.530355	0.386761
434	H	0.238099	0.994453	0.623911
435	C	0.31651	0.539776	0.41986
436	N	0.334107	0.547737	0.44945
437	C	0.491307	0.750963	0.356138
438	N	0.506793	0.759985	0.648537
439	C	0.038085	0.77557	0.643409
440	C	0.057396	0.78377	0.349367
441	N	0.041969	0.774671	0.390264
442	C	0.510669	0.759146	0.395768
443	H	0.046931	0.781543	0.610954
444	C	0.501027	0.751268	0.437818
445	N	0.49285	0.744548	0.475182
446	N	0.190857	0.849995	0.681295
447	C	0.20739	0.833446	0.680789
448	C	0.207299	0.883077	0.681302
449	C	0.15778	0.833443	0.68153
450	C	0.141011	0.832602	0.721166
451	C	0.108337	0.816233	0.721328
452	C	0.09085	0.800282	0.681778
453	C	0.108104	0.801295	0.642224
454	C	0.140779	0.817403	0.642114
455	C	0.224408	0.83376	0.641769
456	C	0.240659	0.817329	0.641363
457	C	0.240777	0.799866	0.679949
458	C	0.223736	0.800035	0.719062
459	C	0.207348	0.816311	0.719468
460	C	0.224827	0.900047	0.719788
461	C	0.241015	0.932723	0.719661
462	C	0.240451	0.950107	0.681237
463	C	0.222791	0.932589	0.64272
464	C	0.206607	0.899913	0.642727
465	H	0.252992	0.818906	0.612442
466	H	0.22504	0.846085	0.613254
467	H	0.195344	0.815685	0.748372
468	H	0.222707	0.787865	0.74799
469	H	0.152639	0.843907	0.750346
470	H	0.097384	0.816559	0.750914
471	H	0.225783	0.888574	0.748348
472	H	0.253136	0.94373	0.748679
473	H	0.221764	0.943327	0.613444
474	H	0.194343	0.888326	0.614115
475	H	0.152245	0.817467	0.612893
476	H	0.09709	0.789713	0.61292
477	N	0.357687	0.683339	0.681822
478	C	0.340426	0.699266	0.682763
479	C	0.341815	0.650254	0.683462
480	C	0.390804	0.700147	0.684347
481	C	0.406622	0.719989	0.721624
482	C	0.439284	0.736825	0.723305
483	C	0.457781	0.734129	0.688466
484	C	0.441546	0.714412	0.650903
485	C	0.408908	0.697927	0.648782
486	C	0.319321	0.694389	0.71861
487	C	0.302425	0.710113	0.719626
488	C	0.306572	0.732489	0.685955
489	C	0.327617	0.736957	0.649812
490	C	0.344016	0.720664	0.648089
491	C	0.335988	0.634375	0.725771
492	C	0.319605	0.601741	0.727493
493	C	0.309221	0.583349	0.687006
494	C	0.315163	0.599713	0.644714
495	C	0.330933	0.632373	0.642937
496	H	0.286407	0.704295	0.745134
497	H	0.315709	0.678855	0.744125
498	H	0.359096	0.724861	0.621579
499	H	0.331634	0.752653	0.62429
500	H	0.3943	0.722678	0.747542
501	H	0.44937	0.751869	0.750029
502	H	0.343061	0.646637	0.755843
503	H	0.314625	0.591646	0.759252
504	H	0.30822	0.587895	0.614243
505	H	0.334692	0.643169	0.611729
506	H	0.398304	0.684021	0.621007
507	H	0.453438	0.711507	0.624514
508	C	0.289927	0.74939	0.687013
509	N	0.283129	0.75814	0.979436
510	C	0.267824	0.774146	0.974414
511	C	0.257412	0.783023	0.680469
512	N	0.264364	0.774465	0.721314
513	C	0.279653	0.758475	0.726753
514	H	0.263635	0.778815	0.94187
515	C	0.284978	0.75435	0.76922
516	N	0.289303	0.750748	0.806972
517	C	0.292624	0.549816	0.687905
518	N	0.271105	0.534381	0.987778
519	C	0.253759	0.003096	0.983424
520	C	0.257327	0.983636	0.681988
521	N	0.278925	0.999084	0.715269
522	C	0.296314	0.530355	0.720091
523	H	0.238099	0.994453	0.957245
524	C	0.31651	0.539776	0.753191
525	N	0.334107	0.547737	0.782783
526	C	0.491307	0.750963	0.689472
527	N	0.506793	0.759985	0.981871
528	C	0.038085	0.77557	0.976743
529	C	0.057396	0.78377	0.682701
530	N	0.041969	0.774671	0.723594
531	C	0.510669	0.759146	0.729101
532	H	0.046931	0.781543	0.944287
533	C	0.501027	0.751268	0.771152
534	N	0.49285	0.744548	0.808515
535	N	0.690857	0.349994	0.014629
536	C	0.707389	0.333447	0.014123
537	C	0.707298	0.383076	0.014636
538	C	0.65778	0.333442	0.014863
539	C	0.64101	0.3326	0.054501
540	C	0.608338	0.316234	0.054661
541	C	0.59085	0.300281	0.015111
542	C	0.608102	0.301296	0.975554
543	C	0.640778	0.317401	0.975448
544	C	0.724407	0.333761	0.9751
545	C	0.740657	0.317327	0.974697
546	C	0.740776	0.299867	0.013279
547	C	0.723734	0.300034	0.052397
548	C	0.707347	0.31631	0.052804
549	C	0.724828	0.400049	0.053124
550	C	0.741014	0.432722	0.052996
551	C	0.74045	0.450106	0.014571
552	C	0.72279	0.432588	0.976054
553	C	0.706608	0.399914	0.976057
554	H	0.75299	0.318904	0.945772
555	H	0.725041	0.346086	0.946585
556	H	0.695343	0.315683	0.081705
557	H	0.722709	0.287866	0.081324
558	H	0.652636	0.343905	0.083679
559	H	0.597385	0.31656	0.084248
560	H	0.725781	0.388575	0.081683
561	H	0.753136	0.443728	0.082014
562	H	0.721764	0.443328	0.946778
563	H	0.694344	0.388327	0.947449
564	H	0.652245	0.317466	0.946223
565	H	0.59709	0.289714	0.946251
566	N	0.857687	0.183338	0.015156
567	C	0.840425	0.199266	0.016096
568	C	0.841816	0.150254	0.016795
569	C	0.890802	0.200146	0.017682
570	C	0.906621	0.219988	0.054958
571	C	0.939285	0.236826	0.056639
572	C	0.95778	0.234128	0.021801
573	C	0.941545	0.214413	0.984234
574	C	0.908908	0.197927	0.982116
575	C	0.819321	0.194388	0.051944
576	C	0.802424	0.210113	0.05296
577	C	0.806571	0.232488	0.019291
578	C	0.827616	0.236956	0.983142
579	C	0.844015	0.220664	0.98142
580	C	0.835987	0.134375	0.059105
581	C	0.819604	0.101741	0.060827
582	C	0.80922	0.083348	0.02034
583	C	0.815162	0.099713	0.978048
584	C	0.830933	0.132373	0.976271
585	H	0.786406	0.204294	0.07847
586	H	0.815709	0.178854	0.077459
587	H	0.859094	0.224861	0.95491
588	H	0.831633	0.252652	0.957624
589	H	0.894298	0.222677	0.080877
590	H	0.949369	0.251868	0.083364
591	H	0.843061	0.146636	0.089178
592	H	0.814624	0.091645	0.092586
593	H	0.80822	0.087895	0.947577
594	H	0.834691	0.143169	0.945062
595	H	0.898304	0.184021	0.954341
596	H	0.953437	0.211508	0.957847
597	C	0.789925	0.249389	0.020349
598	N	0.783129	0.258141	0.312769
599	C	0.767825	0.274147	0.307748
600	C	0.757411	0.283022	0.013799
601	N	0.764363	0.274464	0.054649
602	C	0.779651	0.258474	0.060086
603	H	0.763635	0.278816	0.275202
604	C	0.784976	0.254349	0.102554
605	N	0.789302	0.250749	0.140305
606	C	0.792623	0.049814	0.02124
607	N	0.771106	0.034382	0.321113
608	C	0.753756	0.503095	0.31676
609	C	0.757327	0.483635	0.015322
610	N	0.778926	0.499086	0.048606
611	C	0.796313	0.030355	0.053427
612	H	0.738098	0.494452	0.290577
613	C	0.816511	0.039775	0.086526
614	N	0.834107	0.047737	0.116117
615	C	0.991305	0.250961	0.022807
616	N	0.006792	0.259984	0.315204
617	C	0.538085	0.275569	0.310076
618	C	0.557397	0.283771	0.016031
619	N	0.541969	0.274672	0.05693
620	C	0.010669	0.259147	0.062434
621	H	0.54693	0.281542	0.277621
622	C	0.001027	0.251269	0.104487
623	N	0.992848	0.244547	0.141848
624	N	0.690857	0.349994	0.347962
625	C	0.707389	0.333447	0.347455
626	C	0.707298	0.383076	0.347968
627	C	0.65778	0.333442	0.348196
628	C	0.64101	0.3326	0.387832
629	C	0.608338	0.316234	0.387994
630	C	0.59085	0.300281	0.348444
631	C	0.608102	0.301296	0.30889
632	C	0.640778	0.317401	0.308781
633	C	0.724407	0.333761	0.308435
634	C	0.740657	0.317327	0.308031
635	C	0.740776	0.299867	0.346615
636	C	0.723734	0.300034	0.385731
637	C	0.707347	0.31631	0.386138
638	C	0.724828	0.400049	0.386458
639	C	0.741014	0.432722	0.386327
640	C	0.74045	0.450106	0.347906
641	C	0.72279	0.432588	0.309387
642	C	0.706608	0.399914	0.309393
643	H	0.75299	0.318904	0.279107
644	H	0.725041	0.346086	0.279921
645	H	0.695343	0.315683	0.415038
646	H	0.722709	0.287866	0.414656
647	H	0.652636	0.343905	0.417012
648	H	0.597385	0.31656	0.41758
649	H	0.725781	0.388575	0.415018
650	H	0.753136	0.443728	0.415348
651	H	0.721764	0.443328	0.280111
652	H	0.694344	0.388327	0.280783
653	H	0.652245	0.317466	0.279559
654	H	0.59709	0.289714	0.279586
655	N	0.857687	0.183338	0.348489
656	C	0.840425	0.199266	0.349432
657	C	0.841816	0.150254	0.350128
658	C	0.890802	0.200146	0.351013
659	C	0.906621	0.219988	0.38829
660	C	0.939285	0.236826	0.389971
661	C	0.95778	0.234128	0.355132
662	C	0.941545	0.214413	0.317569
663	C	0.908908	0.197927	0.31545
664	C	0.819321	0.194388	0.385276
665	C	0.802424	0.210113	0.386293
666	C	0.806571	0.232488	0.352625
667	C	0.827616	0.236956	0.316478
668	C	0.844015	0.220664	0.314755
669	C	0.835987	0.134375	0.392437
670	C	0.819604	0.101741	0.394159
671	C	0.80922	0.083348	0.353672
672	C	0.815162	0.099713	0.311381
673	C	0.830933	0.132373	0.309605
674	H	0.786406	0.204294	0.411801
675	H	0.815709	0.178854	0.410791
676	H	0.859094	0.224861	0.288245
677	H	0.831633	0.252652	0.290958
678	H	0.894298	0.222677	0.414212
679	H	0.949369	0.251868	0.416698
680	H	0.843061	0.146636	0.422512
681	H	0.814624	0.091645	0.425919
682	H	0.80822	0.087895	0.28091
683	H	0.834691	0.143169	0.278396
684	H	0.898304	0.184021	0.287676
685	H	0.953437	0.211508	0.291182
686	C	0.789925	0.249389	0.353682
687	N	0.783129	0.258141	0.646102
688	C	0.767825	0.274147	0.64108
689	C	0.757411	0.283022	0.347135
690	N	0.764363	0.274464	0.387984
691	C	0.779651	0.258474	0.393419
692	H	0.763635	0.278816	0.608536
693	C	0.784976	0.254349	0.435886
694	N	0.789302	0.250749	0.473639
695	C	0.792623	0.049814	0.354574
696	N	0.771106	0.034382	0.654448
697	C	0.753756	0.503095	0.650094
698	C	0.757327	0.483635	0.348654
699	N	0.778926	0.499086	0.381939
700	C	0.796313	0.030355	0.386761
701	H	0.738098	0.494452	0.623911
702	C	0.816511	0.039775	0.41986
703	N	0.834107	0.047737	0.44945
704	C	0.991305	0.250961	0.356138
705	N	0.006792	0.259984	0.648537
706	C	0.538085	0.275569	0.643409
707	C	0.557397	0.283771	0.349367
708	N	0.541969	0.274672	0.390264
709	C	0.010669	0.259147	0.395768
710	H	0.54693	0.281542	0.610954
711	C	0.001027	0.251269	0.437818
712	N	0.992848	0.244547	0.475182
713	N	0.690857	0.349994	0.681295
714	C	0.707389	0.333447	0.680789
715	C	0.707298	0.383076	0.681302
716	C	0.65778	0.333442	0.68153
717	C	0.64101	0.3326	0.721166
718	C	0.608338	0.316234	0.721328
719	C	0.59085	0.300281	0.681778
720	C	0.608102	0.301296	0.642224
721	C	0.640778	0.317401	0.642114
722	C	0.724407	0.333761	0.641769
723	C	0.740657	0.317327	0.641363
724	C	0.740776	0.299867	0.679949
725	C	0.723734	0.300034	0.719062
726	C	0.707347	0.31631	0.719468
727	C	0.724828	0.400049	0.719788
728	C	0.741014	0.432722	0.719661
729	C	0.74045	0.450106	0.681237
730	C	0.72279	0.432588	0.64272
731	C	0.706608	0.399914	0.642727
732	H	0.75299	0.318904	0.612442
733	H	0.725041	0.346086	0.613254
734	H	0.695343	0.315683	0.748372
735	H	0.722709	0.287866	0.74799
736	H	0.652636	0.343905	0.750346
737	H	0.597385	0.31656	0.750914
738	H	0.725781	0.388575	0.748348
739	H	0.753136	0.443728	0.748679
740	H	0.721764	0.443328	0.613444
741	H	0.694344	0.388327	0.614115
742	H	0.652245	0.317466	0.612893
743	H	0.59709	0.289714	0.61292
744	N	0.857687	0.183338	0.681822
745	C	0.840425	0.199266	0.682763
746	C	0.841816	0.150254	0.683462
747	C	0.890802	0.200146	0.684347
748	C	0.906621	0.219988	0.721624
749	C	0.939285	0.236826	0.723305
750	C	0.95778	0.234128	0.688466
751	C	0.941545	0.214413	0.650903
752	C	0.908908	0.197927	0.648782
753	C	0.819321	0.194388	0.71861
754	C	0.802424	0.210113	0.719626
755	C	0.806571	0.232488	0.685955
756	C	0.827616	0.236956	0.649812
757	C	0.844015	0.220664	0.648089
758	C	0.835987	0.134375	0.725771
759	C	0.819604	0.101741	0.727493
760	C	0.80922	0.083348	0.687006
761	C	0.815162	0.099713	0.644714
762	C	0.830933	0.132373	0.642937
763	H	0.786406	0.204294	0.745134
764	H	0.815709	0.178854	0.744125
765	H	0.859094	0.224861	0.621579
766	H	0.831633	0.252652	0.62429
767	H	0.894298	0.222677	0.747542
768	H	0.949369	0.251868	0.750029
769	H	0.843061	0.146636	0.755843
770	H	0.814624	0.091645	0.759252
771	H	0.80822	0.087895	0.614243
772	H	0.834691	0.143169	0.611729
773	H	0.898304	0.184021	0.621007
774	H	0.953437	0.211508	0.624514
775	C	0.789925	0.249389	0.687013
776	N	0.783129	0.258141	0.979436
777	C	0.767825	0.274147	0.974414
778	C	0.757411	0.283022	0.680469
779	N	0.764363	0.274464	0.721314
780	C	0.779651	0.258474	0.726753
781	H	0.763635	0.278816	0.94187
782	C	0.784976	0.254349	0.76922
783	N	0.789302	0.250749	0.806972
784	C	0.792623	0.049814	0.687905
785	N	0.771106	0.034382	0.987778
786	C	0.753756	0.503095	0.983424
787	C	0.757327	0.483635	0.681988
788	N	0.778926	0.499086	0.715269
789	C	0.796313	0.030355	0.720091
790	H	0.738098	0.494452	0.957245
791	C	0.816511	0.039775	0.753191
792	N	0.834107	0.047737	0.782783
793	C	0.991305	0.250961	0.689472
794	N	0.006792	0.259984	0.981871
795	C	0.538085	0.275569	0.976743
796	C	0.557397	0.283771	0.682701
797	N	0.541969	0.274672	0.723594
798	C	0.010669	0.259147	0.729101
799	H	0.54693	0.281542	0.944287
800	C	0.001027	0.251269	0.771152
801	N	0.992848	0.244547	0.808515
802	N	0.690857	0.849995	0.014629
803	C	0.707388	0.833446	0.014123
804	C	0.707299	0.883077	0.014636
805	C	0.65778	0.833443	0.014863
806	C	0.641011	0.832602	0.054501
807	C	0.608337	0.816233	0.054661
808	C	0.59085	0.800282	0.015111
809	C	0.608102	0.801295	0.975554
810	C	0.640779	0.817403	0.975448
811	C	0.724407	0.83376	0.9751
812	C	0.740658	0.817329	0.974697
813	C	0.740776	0.799866	0.013279
814	C	0.723735	0.800035	0.052397
815	C	0.707348	0.816311	0.052804
816	C	0.724827	0.900047	0.053124
817	C	0.741015	0.932723	0.052996
818	C	0.740451	0.950107	0.014571
819	C	0.722791	0.932589	0.976054
820	C	0.706607	0.899913	0.976057
821	H	0.752991	0.818906	0.945772
822	H	0.72504	0.846085	0.946585
823	H	0.695344	0.815685	0.081705
824	H	0.722708	0.787865	0.081324
825	H	0.652637	0.843907	0.083679
826	H	0.597385	0.816559	0.084248
827	H	0.725781	0.888574	0.081683
828	H	0.753136	0.94373	0.082014
829	H	0.721764	0.943327	0.946778
830	H	0.694343	0.888326	0.947449
831	H	0.652245	0.817467	0.946223
832	H	0.59709	0.789713	0.946251
833	N	0.857688	0.683339	0.015156
834	C	0.840425	0.699266	0.016096
835	C	0.841816	0.650254	0.016795
836	C	0.890803	0.700147	0.017682
837	C	0.906621	0.719989	0.054958
838	C	0.939284	0.736825	0.056639
839	C	0.957781	0.734129	0.021801
840	C	0.941544	0.714412	0.984234
841	C	0.908907	0.697927	0.982116
842	C	0.819321	0.694389	0.051944
843	C	0.802424	0.710113	0.05296
844	C	0.806571	0.732489	0.019291
845	C	0.827617	0.736957	0.983142
846	C	0.844015	0.720664	0.98142
847	C	0.835987	0.634375	0.059105
848	C	0.819604	0.601741	0.060827
849	C	0.809221	0.583349	0.02034
850	C	0.815162	0.599713	0.978048
851	C	0.830933	0.632373	0.976271
852	H	0.786407	0.704295	0.07847
853	H	0.81571	0.678855	0.07746
854	H	0.859096	0.724861	0.95491
855	H	0.831634	0.752653	0.957624
856	H	0.894299	0.722678	0.080877
857	H	0.949369	0.751869	0.083364
858	H	0.843062	0.646637	0.089178
859	H	0.814625	0.591646	0.092586
860	H	0.80822	0.587895	0.947577
861	H	0.834693	0.643169	0.945062
862	H	0.898304	0.684021	0.954341
863	H	0.953437	0.711507	0.957847
864	C	0.789926	0.74939	0.020349
865	N	0.783129	0.75814	0.312769
866	C	0.767824	0.774146	0.307748
867	C	0.757412	0.783023	0.013799
868	N	0.764363	0.774465	0.054649
869	C	0.779654	0.758475	0.060086
870	H	0.763634	0.778815	0.275202
871	C	0.784977	0.75435	0.102554
872	N	0.789303	0.750748	0.140305
873	C	0.792624	0.549816	0.02124
874	N	0.771105	0.534381	0.321113
875	C	0.753759	0.003096	0.31676
876	C	0.757327	0.983636	0.015322
877	N	0.778925	0.999084	0.048605
878	C	0.796313	0.530355	0.053427
879	H	0.738099	0.994453	0.290578
880	C	0.816511	0.539776	0.086526
881	N	0.834107	0.547737	0.116117
882	C	0.991306	0.750963	0.022807
883	N	0.006793	0.759985	0.315204
884	C	0.538085	0.77557	0.310076
885	C	0.557395	0.78377	0.016031
886	N	0.541968	0.774671	0.05693
887	C	0.010669	0.759146	0.062434
888	H	0.546932	0.781543	0.277621
889	C	0.001026	0.751268	0.104487
890	N	0.992848	0.744548	0.141848
891	N	0.690857	0.849995	0.347962
892	C	0.707388	0.833446	0.347455
893	C	0.707299	0.883077	0.347968
894	C	0.65778	0.833443	0.348199
895	C	0.641011	0.832602	0.387832
896	C	0.608337	0.816233	0.387994
897	C	0.59085	0.800282	0.348444
898	C	0.608102	0.801295	0.30889
899	C	0.640779	0.817403	0.308781
900	C	0.724407	0.83376	0.308435
901	C	0.740658	0.817329	0.308031
902	C	0.740776	0.799866	0.346615
903	C	0.723735	0.800035	0.385731
904	C	0.707348	0.816311	0.386138
905	C	0.724827	0.900047	0.386458
906	C	0.741015	0.932723	0.386327
907	C	0.740451	0.950107	0.347906
908	C	0.722791	0.932589	0.309387
909	C	0.706607	0.899913	0.309393
910	H	0.752991	0.818906	0.279107
911	H	0.72504	0.846085	0.279921
912	H	0.695344	0.815685	0.415038
913	H	0.722708	0.787865	0.414656
914	H	0.652637	0.843907	0.417012
915	H	0.597385	0.816559	0.41758
916	H	0.725781	0.888574	0.415018
917	H	0.753136	0.94373	0.415348
918	H	0.721764	0.943327	0.280111
919	H	0.694343	0.888326	0.280783
920	H	0.652245	0.817467	0.279559
921	H	0.59709	0.789713	0.279586
922	N	0.857688	0.683339	0.348489
923	C	0.840425	0.699266	0.349432
924	C	0.841816	0.650254	0.350128
925	C	0.890803	0.700147	0.351013
926	C	0.906621	0.719989	0.38829
927	C	0.939284	0.736825	0.389971
928	C	0.957781	0.734129	0.355132
929	C	0.941544	0.714412	0.317569
930	C	0.908907	0.697927	0.31545
931	C	0.819321	0.694389	0.385276
932	C	0.802424	0.710113	0.386293
933	C	0.806571	0.732489	0.352625
934	C	0.827617	0.736957	0.316478
935	C	0.844015	0.720664	0.314755
936	C	0.835987	0.634375	0.392437
937	C	0.819604	0.601741	0.394159
938	C	0.809221	0.583349	0.353672
939	C	0.815162	0.599713	0.311381
940	C	0.830933	0.632373	0.309605
941	H	0.786407	0.704295	0.411804
942	H	0.81571	0.678855	0.410791
943	H	0.859096	0.724861	0.288245
944	H	0.831634	0.752653	0.290958
945	H	0.894299	0.722678	0.414212
946	H	0.949369	0.751869	0.416698
947	H	0.843062	0.646637	0.422512
948	H	0.814625	0.591646	0.425919
949	H	0.80822	0.587895	0.28091
950	H	0.834693	0.643169	0.278396
951	H	0.898304	0.684021	0.287676
952	H	0.953437	0.711507	0.291183
953	C	0.789926	0.74939	0.353682
954	N	0.783129	0.75814	0.646102
955	C	0.767824	0.774146	0.64108
956	C	0.757412	0.783023	0.347135
957	N	0.764363	0.774465	0.387984
958	C	0.779654	0.758475	0.393419
959	H	0.763634	0.778815	0.608536
960	C	0.784977	0.75435	0.435886
961	N	0.789303	0.750748	0.473639
962	C	0.792624	0.549816	0.354574
963	N	0.771105	0.534381	0.654448
964	C	0.753759	0.003096	0.650094
965	C	0.757327	0.983636	0.348654
966	N	0.778925	0.999084	0.381939
967	C	0.796313	0.530355	0.386761
968	H	0.738099	0.994453	0.623911
969	C	0.816511	0.539776	0.41986
970	N	0.834107	0.547737	0.44945
971	C	0.991306	0.750963	0.356138
972	N	0.006793	0.759985	0.648537
973	C	0.538085	0.77557	0.643409
974	C	0.557395	0.78377	0.349367
975	N	0.541968	0.774671	0.390264
976	C	0.010669	0.759146	0.395768
977	H	0.546932	0.781543	0.610954
978	C	0.001026	0.751268	0.437818
979	N	0.992848	0.744548	0.475182
980	N	0.690857	0.849995	0.681295
981	C	0.707388	0.833446	0.680789
982	C	0.707299	0.883077	0.681302
983	C	0.65778	0.833443	0.68153
984	C	0.641011	0.832602	0.721166
985	C	0.608337	0.816233	0.721328
986	C	0.59085	0.800282	0.681778
987	C	0.608102	0.801295	0.642224
988	C	0.640779	0.817403	0.642114
989	C	0.724407	0.83376	0.641769
990	C	0.740658	0.817329	0.641363
991	C	0.740776	0.799866	0.679949
992	C	0.723735	0.800035	0.719062
993	C	0.707348	0.816311	0.719468
994	C	0.724827	0.900047	0.719788
995	C	0.741015	0.932723	0.719661
996	C	0.740451	0.950107	0.681237
997	C	0.722791	0.932589	0.64272
998	C	0.706607	0.899913	0.642727
999	H	0.752991	0.818906	0.612442
1000	H	0.72504	0.846085	0.613254
1001	H	0.695344	0.815685	0.748372
1002	H	0.722708	0.787865	0.74799
1003	H	0.652637	0.843907	0.750346
1004	H	0.597385	0.816559	0.750914
1005	H	0.725781	0.888574	0.748348
1006	H	0.753136	0.94373	0.748679
1007	H	0.721764	0.943327	0.613444
1008	H	0.694343	0.888326	0.614115
1009	H	0.652245	0.817467	0.612893
1010	H	0.59709	0.789713	0.61292
1011	N	0.857688	0.683339	0.681822
1012	C	0.840425	0.699266	0.682763
1013	C	0.841816	0.650254	0.683462
1014	C	0.890803	0.700147	0.684347
1015	C	0.906621	0.719989	0.721624
1016	C	0.939284	0.736825	0.723305
1017	C	0.957781	0.734129	0.688466
1018	C	0.941544	0.714412	0.650903
1019	C	0.908907	0.697927	0.648782
1020	C	0.819321	0.694389	0.71861
1021	C	0.802424	0.710113	0.719626
1022	C	0.806571	0.732489	0.685955
1023	C	0.827617	0.736957	0.649812
1024	C	0.844015	0.720664	0.648089
1025	C	0.835987	0.634375	0.725771
1026	C	0.819604	0.601741	0.727493
1027	C	0.809221	0.583349	0.687006
1028	C	0.815162	0.599713	0.644714
1029	C	0.830933	0.632373	0.642937
1030	H	0.786407	0.704295	0.745134
1031	H	0.81571	0.678855	0.744125
1032	H	0.859096	0.724861	0.621579
1033	H	0.831634	0.752653	0.62429
1034	H	0.894299	0.722678	0.747542
1035	H	0.949369	0.751869	0.750029
1036	H	0.843062	0.646637	0.755843
1037	H	0.814625	0.591646	0.759252
1038	H	0.80822	0.587895	0.614243
1039	H	0.834693	0.643169	0.611729
1040	H	0.898304	0.684021	0.621007
1041	H	0.953437	0.711507	0.624514
1042	C	0.789926	0.74939	0.687013
1043	N	0.783129	0.75814	0.979436
1044	C	0.767824	0.774146	0.974414
1045	C	0.757412	0.783023	0.680469
1046	N	0.764363	0.774465	0.721314
1047	C	0.779654	0.758475	0.726753
1048	H	0.763634	0.778815	0.94187
1049	C	0.784977	0.75435	0.76922
1050	N	0.789303	0.750748	0.806972
1051	C	0.792624	0.549816	0.687905
1052	N	0.771105	0.534381	0.987778
1053	C	0.753759	0.003096	0.983424
1054	C	0.757327	0.983636	0.681988
1055	N	0.778925	0.999084	0.715269
1056	C	0.796313	0.530355	0.720091
1057	H	0.738099	0.994453	0.957245
1058	C	0.816511	0.539776	0.753191
1059	N	0.834107	0.547737	0.782783
1060	C	0.991306	0.750963	0.689472
1061	N	0.006793	0.759985	0.981871
1062	C	0.538085	0.77557	0.976743
1063	C	0.557395	0.78377	0.682701
1064	N	0.541968	0.774671	0.723594
1065	C	0.010669	0.759146	0.729101
1066	H	0.546932	0.781543	0.944287
1067	C	0.001026	0.751268	0.771152
1068	N	0.992848	0.744548	0.808515
