data_C1008H504_2018-02-15_10:36:07
#******************************************
#
# CIF file created by Zeo++
# Zeo++ is an open source package to
# analyze microporous materials
#
#*******************************************

_cell_length_a		42.6816   
_cell_length_b		42.6818   
_cell_length_c		29.707   
_cell_angle_alpha		90.0011   
_cell_angle_beta		89.9989   
_cell_angle_gamma		120   

_symmetry_space_group_name_H-M		'P1'
_symmetry_Int_Tables_number		1
_symmetry_cell_setting		Triclinic

loop_
_symmetry_equiv_pos_as_xyz
'+x,+y,+z'

loop_
_atom_site_label
_atom_site_type_symbol
_atom_site_fract_x
_atom_site_fract_y
_atom_site_fract_z
1	C	0.032352	0.321653	0.005082
2	C	0.498968	0.321826	0.00509
3	C	0.499022	0.355237	0.005157
4	C	0.032355	0.388013	0.005219
5	C	0.065685	0.388565	0.00516
6	C	0.065737	0.35521	0.005092
7	C	0.466338	0.288225	0.005069
8	C	0.098369	0.354244	0.005069
9	H	0.032358	0.412072	0.005257
10	C	0.032353	0.288025	0.005082
11	C	0.498973	0.254464	0.005091
12	C	0.499029	0.22111	0.005162
13	C	0.032363	0.221671	0.005223
14	C	0.065691	0.254451	0.00516
15	C	0.065739	0.287854	0.005092
16	C	0.466341	0.255434	0.005069
17	H	0.032368	0.197616	0.005261
18	C	0.098371	0.321455	0.005069
19	H	0.441785	0.232114	0.005084
20	H	0.441781	0.286986	0.005082
21	H	0.122929	0.322697	0.005081
22	H	0.122926	0.377562	0.005082
23	C	0.265536	0.288022	0.338409
24	C	0.26536	0.254463	0.338419
25	C	0.23195	0.221107	0.338486
26	C	0.199175	0.221666	0.338547
27	C	0.198624	0.254445	0.338486
28	C	0.231979	0.287852	0.338419
29	C	0.298961	0.255434	0.338395
30	C	0.232945	0.32145	0.338395
31	H	0.175115	0.197611	0.338587
32	C	0.299163	0.32165	0.338409
33	C	0.332724	0.321829	0.338419
34	C	0.366079	0.35524	0.33849
35	C	0.365518	0.388013	0.33855
36	C	0.332738	0.388562	0.338486
37	C	0.299334	0.355208	0.338416
38	C	0.331754	0.288228	0.338399
39	H	0.389574	0.412075	0.338591
40	C	0.265734	0.354239	0.338392
41	H	0.355073	0.286992	0.338412
42	H	0.300199	0.232116	0.338409
43	H	0.264494	0.377557	0.338409
44	H	0.209627	0.322689	0.338409
45	C	0.299166	0.054837	0.338405
46	C	0.332725	0.088222	0.338416
47	C	0.366081	0.08817	0.33849
48	C	0.365524	0.054837	0.338557
49	C	0.332747	0.021506	0.33849
50	C	0.29934	0.021453	0.338416
51	C	0.331751	0.120851	0.338392
52	C	0.265743	0.488821	0.338392
53	H	0.389583	0.054835	0.338597
54	C	0.265537	0.054835	0.338405
55	C	0.265358	0.088217	0.338416
56	C	0.231947	0.088159	0.338486
57	C	0.199173	0.054824	0.338547
58	C	0.198625	0.021496	0.338486
59	C	0.231982	0.021448	0.338416
60	C	0.298958	0.120849	0.338392
61	H	0.175113	0.054818	0.338591
62	C	0.232952	0.488818	0.338392
63	H	0.300193	0.145404	0.338409
64	H	0.35507	0.145408	0.338409
65	H	0.209635	0.464259	0.338409
66	H	0.264505	0.464264	0.338409
67	C	0.147693	0.2525	0.0461
68	C	0.114672	0.252498	0.046102
69	C	0.097715	0.252338	0.00516
70	C	0.114734	0.252621	0.297552
71	C	0.147755	0.252625	0.297552
72	C	0.164485	0.252326	0.005159
73	H	0.103451	0.253336	0.267432
74	H	0.10335	0.253136	0.076225
75	H	0.159648	0.253128	0.076223
76	H	0.159747	0.253328	0.267431
77	C	0.334693	0.472518	0.046093
78	C	0.334694	0.439499	0.04609
79	C	0.334855	0.422701	0.005147
80	C	0.334547	0.439428	0.297544
81	C	0.334546	0.472447	0.297548
82	C	0.33487	0.489489	0.005154
83	H	0.333841	0.427435	0.267422
84	H	0.334061	0.427542	0.076213
85	H	0.334071	0.483846	0.076217
86	H	0.333851	0.483739	0.267427
87	C	0.114677	0.439486	0.046096
88	C	0.147695	0.47251	0.046097
89	C	0.164489	0.489475	0.005157
90	C	0.147762	0.472445	0.29755
91	C	0.114733	0.439434	0.297549
92	C	0.097705	0.422701	0.005154
93	H	0.159748	0.483737	0.267428
94	H	0.159648	0.483838	0.07622
95	H	0.103345	0.427539	0.076219
96	H	0.103446	0.427441	0.267428
97	C	0.41704	0.357237	0.046099
98	C	0.450062	0.35724	0.046099
99	C	0.467008	0.357369	0.00516
100	C	0.449988	0.357093	0.297555
101	C	0.416976	0.357106	0.297554
102	C	0.400225	0.357372	0.00516
103	H	0.461283	0.356403	0.267433
104	H	0.461386	0.356609	0.076223
105	H	0.405085	0.356609	0.076223
106	H	0.404983	0.3564	0.267433
107	C	0.22996	0.13713	0.046092
108	C	0.229958	0.17015	0.046092
109	C	0.229815	0.18696	0.005153
110	C	0.230081	0.17021	0.297549
111	C	0.230086	0.137191	0.297549
112	C	0.229809	0.120171	0.005154
113	H	0.230792	0.182203	0.267427
114	H	0.230592	0.182106	0.076215
115	H	0.230585	0.125804	0.076216
116	H	0.230785	0.125902	0.267427
117	C	0.450065	0.17015	0.046094
118	C	0.417046	0.137128	0.046094
119	C	0.400226	0.120187	0.005153
120	C	0.416976	0.1372	0.297548
121	C	0.449994	0.170221	0.297549
122	C	0.467017	0.186962	0.005154
123	H	0.404987	0.125907	0.267426
124	H	0.405091	0.125801	0.076217
125	H	0.461397	0.182097	0.076218
126	H	0.461293	0.182203	0.267427
127	C	0.032352	0.321653	0.338416
128	C	0.498968	0.321826	0.338422
129	C	0.499023	0.355237	0.33849
130	C	0.032355	0.388013	0.338554
131	C	0.065685	0.388565	0.338493
132	C	0.065737	0.35521	0.338426
133	C	0.466339	0.288225	0.338402
134	C	0.09837	0.354245	0.338402
135	H	0.032358	0.412072	0.338591
136	C	0.032353	0.288025	0.338416
137	C	0.498971	0.254464	0.338426
138	C	0.499029	0.22111	0.338496
139	C	0.032363	0.221671	0.338557
140	C	0.065691	0.254451	0.338493
141	C	0.065739	0.287855	0.338426
142	C	0.466341	0.255434	0.338402
143	H	0.032368	0.197616	0.338594
144	C	0.098371	0.321455	0.338402
145	H	0.441785	0.232114	0.338416
146	H	0.441781	0.286986	0.338416
147	H	0.122928	0.322695	0.338416
148	H	0.122926	0.377562	0.338416
149	C	0.265536	0.288023	0.671741
150	C	0.26536	0.254463	0.671751
151	C	0.23195	0.221107	0.671819
152	C	0.199175	0.221666	0.671879
153	C	0.198624	0.254445	0.671819
154	C	0.231979	0.287852	0.671751
155	C	0.298961	0.255435	0.671731
156	C	0.232945	0.32145	0.671728
157	H	0.175115	0.197611	0.67192
158	C	0.299163	0.321651	0.671741
159	C	0.332724	0.321829	0.671751
160	C	0.366079	0.35524	0.671822
161	C	0.365518	0.388013	0.671883
162	C	0.332738	0.388563	0.671819
163	C	0.299334	0.355208	0.671748
164	C	0.331754	0.288228	0.671731
165	H	0.389573	0.412072	0.671923
166	C	0.265734	0.354239	0.671728
167	H	0.355073	0.286992	0.671745
168	H	0.300199	0.232116	0.671745
169	H	0.264494	0.377557	0.671741
170	H	0.209627	0.322689	0.671741
171	C	0.299166	0.054837	0.671738
172	C	0.332725	0.088222	0.671748
173	C	0.366081	0.08817	0.671822
174	C	0.365525	0.054837	0.671889
175	C	0.332747	0.021506	0.671822
176	C	0.299341	0.021453	0.671748
177	C	0.331751	0.120851	0.671728
178	C	0.265743	0.488821	0.671724
179	H	0.389581	0.054836	0.67193
180	C	0.265537	0.054835	0.671738
181	C	0.265358	0.088217	0.671748
182	C	0.231947	0.088159	0.671819
183	C	0.199173	0.054824	0.671883
184	C	0.198625	0.021496	0.671819
185	C	0.231982	0.021448	0.671748
186	C	0.298959	0.120849	0.671724
187	H	0.175113	0.054818	0.671923
188	C	0.232952	0.488818	0.671724
189	H	0.300193	0.145404	0.671741
190	H	0.35507	0.145408	0.671741
191	H	0.209635	0.464259	0.671741
192	H	0.264505	0.464264	0.671741
193	C	0.147693	0.2525	0.379433
194	C	0.114672	0.252498	0.379436
195	C	0.097715	0.252338	0.338493
196	C	0.114734	0.252621	0.630886
197	C	0.147755	0.252625	0.630886
198	C	0.164485	0.252326	0.338493
199	H	0.103451	0.253336	0.600765
200	H	0.10335	0.253136	0.409557
201	H	0.159648	0.253128	0.409557
202	H	0.159747	0.253328	0.600765
203	C	0.334693	0.472518	0.379426
204	C	0.334693	0.439497	0.379423
205	C	0.334855	0.422701	0.338479
206	C	0.334547	0.439429	0.630875
207	C	0.334546	0.472448	0.630879
208	C	0.33487	0.489489	0.338486
209	H	0.333841	0.427435	0.600755
210	H	0.334061	0.427542	0.409547
211	H	0.334071	0.483846	0.40955
212	H	0.333851	0.48374	0.600761
213	C	0.114677	0.439486	0.379429
214	C	0.147695	0.47251	0.379429
215	C	0.164489	0.489475	0.33849
216	C	0.147762	0.472445	0.630882
217	C	0.114734	0.439434	0.630882
218	C	0.097705	0.422701	0.338486
219	H	0.159749	0.483737	0.600761
220	H	0.159648	0.483838	0.409554
221	H	0.103345	0.427539	0.409554
222	H	0.103446	0.427441	0.600761
223	C	0.41704	0.357237	0.379433
224	C	0.450061	0.357237	0.379433
225	C	0.467009	0.357369	0.338493
226	C	0.449988	0.357093	0.630889
227	C	0.416976	0.357107	0.630889
228	C	0.400226	0.357372	0.338493
229	H	0.461283	0.356403	0.600765
230	H	0.461387	0.35661	0.409557
231	H	0.405085	0.35661	0.409557
232	H	0.404983	0.3564	0.600765
233	C	0.229961	0.13713	0.379426
234	C	0.229958	0.17015	0.379426
235	C	0.229815	0.18696	0.338486
236	C	0.230082	0.17021	0.630882
237	C	0.230086	0.137191	0.630882
238	C	0.229809	0.120171	0.338486
239	H	0.230792	0.182203	0.600761
240	H	0.230592	0.182106	0.409547
241	H	0.230585	0.125804	0.40955
242	H	0.230785	0.125902	0.600761
243	C	0.450066	0.17015	0.379426
244	C	0.417044	0.137128	0.379426
245	C	0.400226	0.120187	0.338486
246	C	0.416976	0.1372	0.630882
247	C	0.449995	0.170221	0.630882
248	C	0.467015	0.186962	0.338486
249	H	0.404988	0.125907	0.600758
250	H	0.405092	0.125801	0.40955
251	H	0.461397	0.182097	0.40955
252	H	0.461293	0.182203	0.600761
253	C	0.032351	0.321651	0.671748
254	C	0.498968	0.321826	0.671755
255	C	0.499023	0.355238	0.671822
256	C	0.032355	0.388013	0.671886
257	C	0.065684	0.388563	0.671825
258	C	0.065736	0.355208	0.671758
259	C	0.466339	0.288226	0.671735
260	C	0.09837	0.354245	0.671735
261	H	0.032359	0.412072	0.671923
262	C	0.032353	0.288025	0.671748
263	C	0.498971	0.254464	0.671758
264	C	0.49903	0.22111	0.671829
265	C	0.032363	0.221671	0.671889
266	C	0.065691	0.254451	0.671825
267	C	0.06574	0.287855	0.671758
268	C	0.466341	0.255434	0.671735
269	H	0.032368	0.197616	0.671926
270	C	0.098371	0.321456	0.671735
271	H	0.441786	0.232114	0.671751
272	H	0.441782	0.286987	0.671748
273	H	0.122928	0.322695	0.671748
274	H	0.122926	0.377562	0.671748
275	C	0.265536	0.288022	0.005075
276	C	0.26536	0.254463	0.005085
277	C	0.23195	0.221107	0.005152
278	C	0.199175	0.221666	0.005213
279	C	0.198624	0.254445	0.005154
280	C	0.231979	0.287852	0.005085
281	C	0.298961	0.255434	0.005064
282	C	0.232945	0.32145	0.005063
283	H	0.175115	0.197611	0.005254
284	C	0.299163	0.32165	0.005075
285	C	0.332724	0.321829	0.005087
286	C	0.366079	0.35524	0.005157
287	C	0.365518	0.388013	0.005217
288	C	0.332738	0.388562	0.005153
289	C	0.299334	0.355207	0.005083
290	C	0.331754	0.288228	0.005066
291	H	0.389574	0.412074	0.005258
292	C	0.265734	0.354239	0.00506
293	H	0.355073	0.286991	0.00508
294	H	0.300199	0.232116	0.005077
295	H	0.264494	0.377557	0.005075
296	H	0.209627	0.322689	0.005076
297	C	0.299166	0.054837	0.005073
298	C	0.332725	0.088222	0.005084
299	C	0.366083	0.08817	0.005157
300	C	0.365526	0.054837	0.005223
301	C	0.332749	0.021506	0.005157
302	C	0.29934	0.021453	0.005083
303	C	0.331751	0.120851	0.00506
304	C	0.265743	0.48882	0.00506
305	H	0.389583	0.054835	0.005264
306	C	0.265539	0.054835	0.005073
307	C	0.265358	0.088217	0.005083
308	C	0.231947	0.088159	0.005153
309	C	0.199173	0.054824	0.005215
310	C	0.198625	0.021496	0.005153
311	C	0.231982	0.021448	0.005083
312	C	0.298958	0.120849	0.00506
313	H	0.175113	0.054818	0.005257
314	C	0.232952	0.488818	0.00506
315	H	0.300193	0.145404	0.005075
316	H	0.355069	0.145408	0.005076
317	H	0.209636	0.464261	0.005075
318	H	0.264505	0.464264	0.005076
319	C	0.147693	0.2525	0.712765
320	C	0.114672	0.252498	0.712769
321	C	0.097715	0.252338	0.671825
322	C	0.114734	0.252621	0.964218
323	C	0.147755	0.252625	0.964218
324	C	0.164485	0.252326	0.671825
325	H	0.103451	0.253335	0.934097
326	H	0.10335	0.253136	0.74289
327	H	0.159648	0.253128	0.74289
328	H	0.159747	0.253328	0.934097
329	C	0.334694	0.472519	0.712759
330	C	0.334693	0.439497	0.712755
331	C	0.334856	0.422702	0.671812
332	C	0.334546	0.439426	0.964208
333	C	0.334545	0.472445	0.964215
334	C	0.33487	0.489489	0.671819
335	H	0.333841	0.427436	0.934087
336	H	0.334062	0.427542	0.74288
337	H	0.334071	0.483846	0.742883
338	H	0.333851	0.48374	0.934094
339	C	0.114678	0.439486	0.712762
340	C	0.147696	0.472511	0.712762
341	C	0.164489	0.489476	0.671822
342	C	0.147762	0.472445	0.964215
343	C	0.114734	0.439434	0.964215
344	C	0.097705	0.422702	0.671819
345	H	0.159749	0.483737	0.934094
346	H	0.159647	0.483836	0.742886
347	H	0.103345	0.427539	0.742886
348	H	0.103446	0.427441	0.934094
349	C	0.417038	0.357237	0.712765
350	C	0.450059	0.357237	0.712765
351	C	0.467009	0.35737	0.671825
352	C	0.449989	0.357094	0.964221
353	C	0.416974	0.357107	0.964221
354	C	0.400226	0.357372	0.671825
355	H	0.461282	0.356401	0.934097
356	H	0.461385	0.35661	0.74289
357	H	0.405084	0.356607	0.74289
358	H	0.404983	0.356401	0.934101
359	C	0.22996	0.13713	0.712759
360	C	0.229958	0.17015	0.712759
361	C	0.229815	0.18696	0.671819
362	C	0.230082	0.17021	0.964215
363	C	0.230086	0.137191	0.964215
364	C	0.229809	0.120171	0.671819
365	H	0.230792	0.182203	0.934094
366	H	0.230591	0.182106	0.742883
367	H	0.230585	0.125804	0.742883
368	H	0.230785	0.125902	0.934094
369	C	0.450066	0.17015	0.712759
370	C	0.417044	0.137128	0.712759
371	C	0.400226	0.120187	0.671819
372	C	0.416976	0.1372	0.964215
373	C	0.449995	0.170221	0.964215
374	C	0.467015	0.186962	0.671819
375	H	0.404988	0.125907	0.934094
376	H	0.405092	0.125801	0.742883
377	H	0.461397	0.182097	0.742883
378	H	0.461293	0.182203	0.934094
379	C	0.032353	0.821652	0.005082
380	C	0.49897	0.821827	0.00509
381	C	0.499023	0.855236	0.005157
382	C	0.032355	0.888012	0.005219
383	C	0.065685	0.888564	0.00516
384	C	0.065736	0.855209	0.005092
385	C	0.466339	0.788224	0.005069
386	C	0.098368	0.854243	0.005069
387	H	0.032358	0.912071	0.005257
388	C	0.032352	0.788024	0.005082
389	C	0.498972	0.754464	0.005091
390	C	0.499029	0.721109	0.005162
391	C	0.032363	0.721672	0.005223
392	C	0.065692	0.75445	0.00516
393	C	0.065742	0.787856	0.005092
394	C	0.466341	0.755432	0.005069
395	H	0.032369	0.697616	0.005261
396	C	0.098372	0.821454	0.005069
397	H	0.441786	0.732115	0.005084
398	H	0.441783	0.786988	0.005082
399	H	0.122928	0.822696	0.005081
400	H	0.122925	0.877561	0.005082
401	C	0.265537	0.788024	0.338409
402	C	0.265361	0.754464	0.338419
403	C	0.23195	0.721107	0.338486
404	C	0.199175	0.721667	0.338547
405	C	0.198624	0.754445	0.338486
406	C	0.231979	0.787851	0.338419
407	C	0.298962	0.755435	0.338395
408	C	0.232945	0.821449	0.338395
409	H	0.175115	0.697611	0.338587
410	C	0.299164	0.821652	0.338409
411	C	0.332723	0.821828	0.338419
412	C	0.366079	0.855239	0.33849
413	C	0.365519	0.888015	0.33855
414	C	0.332739	0.888564	0.338486
415	C	0.299333	0.855207	0.338416
416	C	0.331754	0.788227	0.338399
417	H	0.389574	0.912074	0.338591
418	C	0.265734	0.854238	0.338392
419	H	0.355073	0.786991	0.338412
420	H	0.300199	0.732115	0.338409
421	H	0.264494	0.877556	0.338409
422	H	0.209627	0.822688	0.338409
423	C	0.299167	0.554837	0.338405
424	C	0.332725	0.588221	0.338416
425	C	0.366082	0.58817	0.33849
426	C	0.365526	0.554837	0.338557
427	C	0.332748	0.521507	0.33849
428	C	0.299341	0.521453	0.338416
429	C	0.331752	0.620851	0.338392
430	C	0.265743	0.98882	0.338392
431	H	0.389582	0.554834	0.338597
432	C	0.265538	0.554834	0.338405
433	C	0.265358	0.588216	0.338416
434	C	0.231947	0.588159	0.338486
435	C	0.199173	0.554824	0.338547
436	C	0.198626	0.521496	0.338486
437	C	0.231982	0.521447	0.338416
438	C	0.298958	0.620848	0.338392
439	H	0.175113	0.554818	0.338591
440	C	0.232951	0.988817	0.338392
441	H	0.300194	0.645405	0.338409
442	H	0.35507	0.645408	0.338409
443	H	0.209636	0.96426	0.338409
444	H	0.264505	0.964263	0.338409
445	C	0.147694	0.7525	0.0461
446	C	0.114671	0.752497	0.046102
447	C	0.097715	0.752337	0.00516
448	C	0.114734	0.752621	0.297552
449	C	0.147755	0.752624	0.297552
450	C	0.164485	0.752326	0.005159
451	H	0.103452	0.753335	0.267432
452	H	0.10335	0.753136	0.076225
453	H	0.159648	0.753128	0.076223
454	H	0.159747	0.753327	0.267431
455	C	0.334693	0.972517	0.046093
456	C	0.334694	0.939498	0.04609
457	C	0.334855	0.9227	0.005147
458	C	0.334547	0.939427	0.297544
459	C	0.334546	0.972446	0.297548
460	C	0.33487	0.989488	0.005154
461	H	0.333842	0.927437	0.267422
462	H	0.334061	0.927541	0.076213
463	H	0.334071	0.983845	0.076217
464	H	0.333852	0.983741	0.267427
465	C	0.114679	0.939487	0.046096
466	C	0.147696	0.972509	0.046097
467	C	0.164489	0.989474	0.005157
468	C	0.147763	0.972444	0.29755
469	C	0.114732	0.939433	0.297549
470	C	0.097707	0.922703	0.005154
471	H	0.15975	0.983738	0.267428
472	H	0.159648	0.983837	0.07622
473	H	0.103345	0.927538	0.076219
474	H	0.103446	0.927439	0.267428
475	C	0.41704	0.857238	0.046099
476	C	0.450061	0.857238	0.046099
477	C	0.467008	0.857368	0.00516
478	C	0.449989	0.857092	0.297555
479	C	0.416975	0.857105	0.297554
480	C	0.400225	0.857371	0.00516
481	H	0.461283	0.856402	0.267433
482	H	0.461387	0.856611	0.076223
483	H	0.405085	0.856608	0.076223
484	H	0.404984	0.856402	0.267433
485	C	0.229961	0.637129	0.046092
486	C	0.229958	0.670148	0.046092
487	C	0.229815	0.686959	0.005153
488	C	0.230082	0.67021	0.297549
489	C	0.230086	0.637191	0.297549
490	C	0.22981	0.620172	0.005154
491	H	0.230792	0.682203	0.267427
492	H	0.230592	0.682106	0.076215
493	H	0.230586	0.625805	0.076216
494	H	0.230785	0.625901	0.267427
495	C	0.450066	0.670151	0.046094
496	C	0.417045	0.637127	0.046094
497	C	0.400227	0.620188	0.005153
498	C	0.416975	0.637199	0.297548
499	C	0.449995	0.670221	0.297549
500	C	0.467016	0.686962	0.005154
501	H	0.404988	0.625907	0.267426
502	H	0.405093	0.625802	0.076217
503	H	0.461397	0.682096	0.076218
504	H	0.461294	0.682203	0.267427
505	C	0.032351	0.821652	0.338416
506	C	0.49897	0.821828	0.338422
507	C	0.499023	0.855236	0.33849
508	C	0.032355	0.888012	0.338554
509	C	0.065685	0.888564	0.338493
510	C	0.065737	0.855209	0.338426
511	C	0.466339	0.788224	0.338402
512	C	0.098369	0.854244	0.338402
513	H	0.032359	0.912071	0.338591
514	C	0.032352	0.788024	0.338416
515	C	0.498972	0.754464	0.338426
516	C	0.499029	0.721109	0.338496
517	C	0.032362	0.721669	0.338557
518	C	0.065692	0.75445	0.338493
519	C	0.06574	0.787856	0.338426
520	C	0.466341	0.755432	0.338402
521	H	0.032369	0.697616	0.338594
522	C	0.09837	0.821454	0.338402
523	H	0.441786	0.732115	0.338416
524	H	0.441783	0.786988	0.338416
525	H	0.122928	0.822696	0.338416
526	H	0.122925	0.877561	0.338416
527	C	0.265536	0.788022	0.671741
528	C	0.265361	0.754464	0.671751
529	C	0.23195	0.721107	0.671819
530	C	0.199175	0.721667	0.671879
531	C	0.198624	0.754445	0.671819
532	C	0.231979	0.787851	0.671751
533	C	0.298962	0.755435	0.671731
534	C	0.232945	0.821449	0.671728
535	H	0.175116	0.697611	0.67192
536	C	0.299163	0.821649	0.671741
537	C	0.332724	0.821828	0.671751
538	C	0.366079	0.855239	0.671822
539	C	0.365519	0.888015	0.671883
540	C	0.33274	0.888564	0.671819
541	C	0.299334	0.855207	0.671748
542	C	0.331754	0.788227	0.671731
543	H	0.389574	0.912074	0.671923
544	C	0.265734	0.854238	0.671728
545	H	0.355073	0.786991	0.671745
546	H	0.300199	0.732115	0.671745
547	H	0.264494	0.877556	0.671741
548	H	0.209627	0.822688	0.671741
549	C	0.299167	0.554837	0.671738
550	C	0.332725	0.588222	0.671748
551	C	0.366083	0.58817	0.671822
552	C	0.365526	0.554837	0.671889
553	C	0.332749	0.521507	0.671822
554	C	0.299341	0.521453	0.671748
555	C	0.331752	0.620851	0.671728
556	C	0.265743	0.98882	0.671724
557	H	0.389582	0.554835	0.67193
558	C	0.265538	0.554835	0.671738
559	C	0.265358	0.588216	0.671748
560	C	0.231947	0.58816	0.671819
561	C	0.199173	0.554824	0.671883
562	C	0.198626	0.521496	0.671819
563	C	0.231982	0.521448	0.671748
564	C	0.298958	0.620849	0.671724
565	H	0.175113	0.554819	0.671923
566	C	0.232952	0.988817	0.671724
567	H	0.300194	0.645405	0.671741
568	H	0.35507	0.645408	0.671741
569	H	0.209636	0.96426	0.671741
570	H	0.264505	0.964263	0.671741
571	C	0.147694	0.7525	0.379433
572	C	0.114671	0.752498	0.379436
573	C	0.097716	0.752338	0.338493
574	C	0.114735	0.752621	0.630886
575	C	0.147756	0.752624	0.630886
576	C	0.164485	0.752327	0.338493
577	H	0.103452	0.753335	0.600765
578	H	0.103351	0.753136	0.409557
579	H	0.159648	0.753128	0.409557
580	H	0.159747	0.753327	0.600765
581	C	0.334693	0.972517	0.379426
582	C	0.334694	0.939498	0.379423
583	C	0.334855	0.9227	0.338479
584	C	0.334547	0.939428	0.630875
585	C	0.334546	0.972447	0.630879
586	C	0.33487	0.989488	0.338486
587	H	0.333841	0.927434	0.600755
588	H	0.334061	0.927541	0.409547
589	H	0.334071	0.983845	0.40955
590	H	0.333851	0.983739	0.600761
591	C	0.114679	0.939487	0.379429
592	C	0.147696	0.972509	0.379429
593	C	0.164489	0.989474	0.33849
594	C	0.147763	0.972444	0.630882
595	C	0.114733	0.939433	0.630882
596	C	0.097705	0.922703	0.338486
597	H	0.159749	0.983736	0.600761
598	H	0.159648	0.983837	0.409554
599	H	0.103343	0.927538	0.409554
600	H	0.103446	0.92744	0.600761
601	C	0.41704	0.857239	0.379433
602	C	0.450061	0.857239	0.379433
603	C	0.467008	0.857368	0.338493
604	C	0.449989	0.857092	0.630889
605	C	0.416975	0.857106	0.630889
606	C	0.400225	0.857371	0.338493
607	H	0.461283	0.856402	0.600765
608	H	0.461387	0.856611	0.409557
609	H	0.405085	0.856609	0.409557
610	H	0.404984	0.856402	0.600765
611	C	0.229961	0.63713	0.379426
612	C	0.229958	0.670149	0.379426
613	C	0.229815	0.686959	0.338486
614	C	0.230082	0.67021	0.630882
615	C	0.230086	0.637191	0.630882
616	C	0.22981	0.620172	0.338486
617	H	0.230792	0.682203	0.600761
618	H	0.230592	0.682107	0.409547
619	H	0.230585	0.625802	0.40955
620	H	0.230785	0.625902	0.600761
621	C	0.450065	0.670149	0.379426
622	C	0.417045	0.637127	0.379426
623	C	0.400226	0.620185	0.338486
624	C	0.416975	0.637199	0.630882
625	C	0.449995	0.670221	0.630882
626	C	0.467016	0.686962	0.338486
627	H	0.404988	0.625907	0.600758
628	H	0.405092	0.6258	0.40955
629	H	0.461397	0.682096	0.40955
630	H	0.461294	0.682203	0.600761
631	C	0.032351	0.821652	0.671748
632	C	0.49897	0.821828	0.671755
633	C	0.499023	0.855237	0.671822
634	C	0.032356	0.888012	0.671886
635	C	0.065686	0.888564	0.671825
636	C	0.065737	0.85521	0.671758
637	C	0.466339	0.788225	0.671735
638	C	0.098369	0.854244	0.671735
639	H	0.032359	0.912071	0.671923
640	C	0.032353	0.788024	0.671748
641	C	0.498973	0.754464	0.671758
642	C	0.49903	0.72111	0.671829
643	C	0.032363	0.72167	0.671889
644	C	0.065693	0.754451	0.671825
645	C	0.06574	0.787857	0.671758
646	C	0.466341	0.755433	0.671735
647	H	0.032369	0.697616	0.671926
648	C	0.09837	0.821455	0.671735
649	H	0.441786	0.732115	0.671751
650	H	0.441784	0.786988	0.671748
651	H	0.122929	0.822696	0.671748
652	H	0.122926	0.877561	0.671748
653	C	0.265537	0.788024	0.005075
654	C	0.265361	0.754464	0.005085
655	C	0.23195	0.721106	0.005152
656	C	0.199175	0.721666	0.005213
657	C	0.198624	0.754445	0.005154
658	C	0.231979	0.787851	0.005085
659	C	0.298962	0.755435	0.005064
660	C	0.232945	0.821449	0.005063
661	H	0.175115	0.69761	0.005254
662	C	0.299164	0.821652	0.005075
663	C	0.332723	0.821827	0.005087
664	C	0.366079	0.855239	0.005157
665	C	0.365519	0.888014	0.005217
666	C	0.332739	0.888564	0.005153
667	C	0.299333	0.855206	0.005083
668	C	0.331753	0.788227	0.005066
669	H	0.389574	0.912073	0.005258
670	C	0.265735	0.854241	0.00506
671	H	0.355073	0.78699	0.00508
672	H	0.300199	0.732115	0.005077
673	H	0.264494	0.877555	0.005075
674	H	0.209627	0.822688	0.005076
675	C	0.299166	0.554837	0.005073
676	C	0.332725	0.588221	0.005084
677	C	0.366082	0.58817	0.005157
678	C	0.365526	0.554837	0.005223
679	C	0.332748	0.521507	0.005157
680	C	0.29934	0.521453	0.005083
681	C	0.331752	0.620851	0.00506
682	C	0.265743	0.988819	0.00506
683	H	0.389582	0.554834	0.005264
684	C	0.265538	0.554834	0.005073
685	C	0.265358	0.588216	0.005083
686	C	0.231947	0.588159	0.005153
687	C	0.199173	0.554823	0.005215
688	C	0.198625	0.521496	0.005153
689	C	0.231982	0.521447	0.005083
690	C	0.298958	0.620848	0.00506
691	H	0.175113	0.554818	0.005257
692	C	0.232951	0.988817	0.00506
693	H	0.300194	0.645405	0.005075
694	H	0.35507	0.645407	0.005076
695	H	0.209635	0.96426	0.005075
696	H	0.264505	0.964263	0.005076
697	C	0.147694	0.7525	0.712765
698	C	0.114672	0.752498	0.712769
699	C	0.097716	0.752338	0.671825
700	C	0.114735	0.752622	0.964218
701	C	0.147756	0.752624	0.964218
702	C	0.164486	0.752327	0.671825
703	H	0.103453	0.753336	0.934097
704	H	0.103351	0.753137	0.74289
705	H	0.159648	0.753128	0.74289
706	H	0.159747	0.753328	0.934097
707	C	0.334693	0.972518	0.712759
708	C	0.334694	0.939499	0.712755
709	C	0.334855	0.922701	0.671812
710	C	0.334547	0.939428	0.964208
711	C	0.334546	0.972447	0.964215
712	C	0.33487	0.989488	0.671819
713	H	0.333841	0.927435	0.934087
714	H	0.334061	0.927541	0.74288
715	H	0.334071	0.983845	0.742883
716	H	0.333851	0.983739	0.934094
717	C	0.114678	0.939485	0.712762
718	C	0.147696	0.97251	0.712762
719	C	0.164488	0.989475	0.671822
720	C	0.147761	0.972444	0.964215
721	C	0.114733	0.939433	0.964215
722	C	0.097706	0.922703	0.671819
723	H	0.159747	0.983736	0.934094
724	H	0.159648	0.983837	0.742886
725	H	0.103344	0.927538	0.742886
726	H	0.103447	0.92744	0.934094
727	C	0.41704	0.857239	0.712765
728	C	0.450061	0.857239	0.712765
729	C	0.467008	0.857369	0.671825
730	C	0.449989	0.857092	0.964221
731	C	0.416975	0.857106	0.964221
732	C	0.400225	0.857371	0.671825
733	H	0.461283	0.856402	0.934097
734	H	0.461387	0.856612	0.74289
735	H	0.405085	0.856609	0.74289
736	H	0.404984	0.856402	0.934101
737	C	0.229961	0.63713	0.712759
738	C	0.229958	0.670149	0.712759
739	C	0.229815	0.68696	0.671819
740	C	0.230082	0.670211	0.964215
741	C	0.230086	0.637192	0.964215
742	C	0.22981	0.620172	0.671819
743	H	0.230792	0.682203	0.934094
744	H	0.230592	0.682107	0.742883
745	H	0.230585	0.625803	0.742883
746	H	0.230785	0.625902	0.934094
747	C	0.450065	0.670149	0.712759
748	C	0.417045	0.637127	0.712759
749	C	0.400226	0.620186	0.671819
750	C	0.416975	0.6372	0.964215
751	C	0.449995	0.670222	0.964215
752	C	0.467016	0.686962	0.671819
753	H	0.404989	0.625907	0.934094
754	H	0.405092	0.6258	0.742883
755	H	0.461397	0.682096	0.742883
756	H	0.461294	0.682203	0.934094
757	C	0.532354	0.321653	0.005082
758	C	0.99897	0.321826	0.00509
759	C	0.999024	0.355237	0.005157
760	C	0.532356	0.388013	0.005219
761	C	0.565686	0.388565	0.00516
762	C	0.565738	0.35521	0.005092
763	C	0.96634	0.288225	0.005069
764	C	0.598372	0.354244	0.005069
765	H	0.53236	0.412072	0.005257
766	C	0.532356	0.288025	0.005082
767	C	0.998973	0.254464	0.005091
768	C	0.999031	0.22111	0.005162
769	C	0.532364	0.221671	0.005223
770	C	0.565693	0.254451	0.00516
771	C	0.565742	0.287854	0.005092
772	C	0.966343	0.255434	0.005069
773	H	0.53237	0.197616	0.005261
774	C	0.598373	0.321455	0.005069
775	H	0.941787	0.232114	0.005084
776	H	0.941783	0.286986	0.005082
777	H	0.622932	0.322697	0.005081
778	H	0.622929	0.377562	0.005082
779	C	0.765537	0.288022	0.338409
780	C	0.765362	0.254463	0.338419
781	C	0.73195	0.221107	0.338486
782	C	0.699176	0.221666	0.338547
783	C	0.698626	0.254445	0.338486
784	C	0.731981	0.287852	0.338419
785	C	0.798962	0.255434	0.338395
786	C	0.732946	0.32145	0.338395
787	H	0.675117	0.197611	0.338587
788	C	0.799164	0.32165	0.338409
789	C	0.832724	0.321829	0.338419
790	C	0.866081	0.35524	0.33849
791	C	0.865519	0.388013	0.33855
792	C	0.832739	0.388562	0.338486
793	C	0.799336	0.355208	0.338416
794	C	0.831755	0.288228	0.338399
795	H	0.889576	0.412075	0.338591
796	C	0.765737	0.354239	0.338392
797	H	0.855074	0.286992	0.338412
798	H	0.800201	0.232116	0.338409
799	H	0.764495	0.377557	0.338409
800	H	0.709628	0.322689	0.338409
801	C	0.799168	0.054837	0.338405
802	C	0.832727	0.088222	0.338416
803	C	0.866083	0.08817	0.33849
804	C	0.865526	0.054837	0.338557
805	C	0.832749	0.021506	0.33849
806	C	0.799342	0.021453	0.338416
807	C	0.831753	0.120851	0.338392
808	C	0.765746	0.488821	0.338392
809	H	0.889583	0.054835	0.338597
810	C	0.765539	0.054835	0.338405
811	C	0.765361	0.088217	0.338416
812	C	0.731947	0.088159	0.338486
813	C	0.699174	0.054824	0.338547
814	C	0.698627	0.021496	0.338486
815	C	0.731983	0.021448	0.338416
816	C	0.79896	0.120849	0.338392
817	H	0.675114	0.054818	0.338591
818	C	0.732953	0.488818	0.338392
819	H	0.800196	0.145404	0.338409
820	H	0.855072	0.145408	0.338409
821	H	0.709636	0.464259	0.338409
822	H	0.764507	0.464264	0.338409
823	C	0.647694	0.2525	0.0461
824	C	0.614674	0.252498	0.046102
825	C	0.597716	0.252338	0.00516
826	C	0.614735	0.252621	0.297552
827	C	0.647756	0.252625	0.297552
828	C	0.664487	0.252326	0.005159
829	H	0.603453	0.253336	0.267432
830	H	0.603351	0.253136	0.076225
831	H	0.65965	0.253128	0.076223
832	H	0.659747	0.253328	0.267431
833	C	0.834695	0.472518	0.046093
834	C	0.834696	0.439499	0.04609
835	C	0.834856	0.422701	0.005147
836	C	0.834549	0.439428	0.297544
837	C	0.834548	0.472447	0.297548
838	C	0.834873	0.489489	0.005154
839	H	0.833841	0.427435	0.267422
840	H	0.834063	0.427542	0.076213
841	H	0.834072	0.483846	0.076217
842	H	0.833852	0.483739	0.267427
843	C	0.614679	0.439486	0.046096
844	C	0.647697	0.47251	0.046097
845	C	0.66449	0.489475	0.005157
846	C	0.647764	0.472445	0.29755
847	C	0.614734	0.439434	0.297549
848	C	0.597707	0.422701	0.005154
849	H	0.65975	0.483737	0.267428
850	H	0.659649	0.483838	0.07622
851	H	0.603347	0.427539	0.076219
852	H	0.603447	0.427441	0.267428
853	C	0.917039	0.357237	0.046099
854	C	0.950062	0.35724	0.046099
855	C	0.96701	0.357369	0.00516
856	C	0.94999	0.357093	0.297555
857	C	0.916975	0.357106	0.297554
858	C	0.900226	0.357372	0.00516
859	H	0.961285	0.356403	0.267433
860	H	0.961386	0.356609	0.076223
861	H	0.905085	0.356609	0.076223
862	H	0.904985	0.3564	0.267433
863	C	0.729962	0.13713	0.046092
864	C	0.729959	0.17015	0.046092
865	C	0.729817	0.18696	0.005153
866	C	0.730084	0.17021	0.297549
867	C	0.730087	0.137191	0.297549
868	C	0.729812	0.120171	0.005154
869	H	0.730793	0.182203	0.267427
870	H	0.730592	0.182106	0.076215
871	H	0.730586	0.125804	0.076216
872	H	0.730785	0.125902	0.267427
873	C	0.950067	0.17015	0.046094
874	C	0.917046	0.137128	0.046094
875	C	0.900228	0.120187	0.005153
876	C	0.916978	0.1372	0.297548
877	C	0.949996	0.170221	0.297549
878	C	0.967017	0.186962	0.005154
879	H	0.904989	0.125907	0.267426
880	H	0.905093	0.125801	0.076217
881	H	0.961399	0.182097	0.076218
882	H	0.961295	0.182203	0.267427
883	C	0.532355	0.321653	0.338416
884	C	0.99897	0.321826	0.338422
885	C	0.999024	0.355237	0.33849
886	C	0.532357	0.388013	0.338554
887	C	0.565687	0.388565	0.338493
888	C	0.565738	0.35521	0.338426
889	C	0.966341	0.288225	0.338402
890	C	0.59837	0.354245	0.338402
891	H	0.53236	0.412072	0.338591
892	C	0.532354	0.288025	0.338416
893	C	0.998973	0.254464	0.338426
894	C	0.999031	0.22111	0.338496
895	C	0.532364	0.221671	0.338557
896	C	0.565693	0.254451	0.338493
897	C	0.565742	0.287855	0.338426
898	C	0.966343	0.255434	0.338402
899	H	0.53237	0.197616	0.338594
900	C	0.598373	0.321455	0.338402
901	H	0.941787	0.232114	0.338416
902	H	0.941783	0.286986	0.338416
903	H	0.622928	0.322695	0.338416
904	H	0.622927	0.377562	0.338416
905	C	0.765537	0.288023	0.671741
906	C	0.765362	0.254463	0.671751
907	C	0.731951	0.221107	0.671819
908	C	0.699176	0.221666	0.671879
909	C	0.698626	0.254445	0.671819
910	C	0.731981	0.287852	0.671751
911	C	0.798962	0.255435	0.671731
912	C	0.732947	0.32145	0.671728
913	H	0.675117	0.197611	0.67192
914	C	0.799164	0.321651	0.671741
915	C	0.832725	0.321829	0.671751
916	C	0.866081	0.35524	0.671822
917	C	0.865519	0.388013	0.671883
918	C	0.83274	0.388563	0.671819
919	C	0.799336	0.355208	0.671748
920	C	0.831755	0.288228	0.671731
921	H	0.889575	0.412072	0.671923
922	C	0.765735	0.354239	0.671728
923	H	0.855075	0.286992	0.671745
924	H	0.800201	0.232116	0.671745
925	H	0.764496	0.377557	0.671741
926	H	0.709628	0.322689	0.671741
927	C	0.799168	0.054837	0.671738
928	C	0.832727	0.088222	0.671748
929	C	0.866083	0.08817	0.671822
930	C	0.865527	0.054837	0.671889
931	C	0.832749	0.021506	0.671822
932	C	0.799343	0.021453	0.671748
933	C	0.831753	0.120851	0.671728
934	C	0.765744	0.488821	0.671724
935	H	0.889583	0.054836	0.67193
936	C	0.765539	0.054835	0.671738
937	C	0.765361	0.088217	0.671748
938	C	0.731948	0.088159	0.671819
939	C	0.699175	0.054824	0.671883
940	C	0.698628	0.021496	0.671819
941	C	0.731983	0.021448	0.671748
942	C	0.798961	0.120849	0.671724
943	H	0.675114	0.054818	0.671923
944	C	0.732953	0.488818	0.671724
945	H	0.800194	0.145404	0.671741
946	H	0.855072	0.145408	0.671741
947	H	0.709636	0.464259	0.671741
948	H	0.764508	0.464264	0.671741
949	C	0.647695	0.2525	0.379433
950	C	0.614672	0.252498	0.379436
951	C	0.597717	0.252338	0.338493
952	C	0.614735	0.252621	0.630886
953	C	0.647756	0.252625	0.630886
954	C	0.664487	0.252326	0.338493
955	H	0.603453	0.253336	0.600765
956	H	0.603351	0.253136	0.409557
957	H	0.659648	0.253128	0.409557
958	H	0.659747	0.253328	0.600765
959	C	0.834695	0.472518	0.379426
960	C	0.834695	0.439497	0.379423
961	C	0.834856	0.422701	0.338479
962	C	0.834547	0.439429	0.630875
963	C	0.834546	0.472448	0.630879
964	C	0.834871	0.489489	0.338486
965	H	0.833841	0.427435	0.600755
966	H	0.834064	0.427542	0.409547
967	H	0.834073	0.483846	0.40955
968	H	0.833853	0.48374	0.600761
969	C	0.614679	0.439486	0.379429
970	C	0.647697	0.47251	0.379429
971	C	0.664491	0.489475	0.33849
972	C	0.647764	0.472445	0.630882
973	C	0.614734	0.439434	0.630882
974	C	0.597708	0.422701	0.338486
975	H	0.659751	0.483737	0.600761
976	H	0.659649	0.483838	0.409554
977	H	0.603347	0.427539	0.409554
978	H	0.603448	0.427441	0.600761
979	C	0.91704	0.357237	0.379433
980	C	0.950061	0.357237	0.379433
981	C	0.967011	0.357369	0.338493
982	C	0.94999	0.357093	0.630889
983	C	0.916976	0.357107	0.630889
984	C	0.900227	0.357372	0.338493
985	H	0.961285	0.356403	0.600765
986	H	0.961386	0.35661	0.409557
987	H	0.905086	0.35661	0.409557
988	H	0.904983	0.3564	0.600765
989	C	0.729962	0.13713	0.379426
990	C	0.729959	0.17015	0.379426
991	C	0.729818	0.18696	0.338486
992	C	0.730084	0.17021	0.630882
993	C	0.730088	0.137191	0.630882
994	C	0.72981	0.120171	0.338486
995	H	0.730793	0.182203	0.600761
996	H	0.730593	0.182106	0.409547
997	H	0.730587	0.125804	0.40955
998	H	0.730786	0.125902	0.600761
999	C	0.950068	0.17015	0.379426
1000	C	0.917046	0.137128	0.379426
1001	C	0.900228	0.120187	0.338486
1002	C	0.916975	0.1372	0.630882
1003	C	0.949997	0.170221	0.630882
1004	C	0.967017	0.186962	0.338486
1005	H	0.90499	0.125907	0.600758
1006	H	0.905094	0.125801	0.40955
1007	H	0.961399	0.182097	0.40955
1008	H	0.961295	0.182203	0.600761
1009	C	0.532351	0.321651	0.671748
1010	C	0.99897	0.321826	0.671755
1011	C	0.999025	0.355238	0.671822
1012	C	0.532357	0.388013	0.671886
1013	C	0.565686	0.388563	0.671825
1014	C	0.565737	0.355208	0.671758
1015	C	0.966341	0.288226	0.671735
1016	C	0.59837	0.354245	0.671735
1017	H	0.53236	0.412072	0.671923
1018	C	0.532354	0.288025	0.671748
1019	C	0.998973	0.254464	0.671758
1020	C	0.999032	0.22111	0.671829
1021	C	0.532364	0.221671	0.671889
1022	C	0.565694	0.254451	0.671825
1023	C	0.56574	0.287855	0.671758
1024	C	0.966343	0.255434	0.671735
1025	H	0.53237	0.197616	0.671926
1026	C	0.598372	0.321456	0.671735
1027	H	0.941788	0.232114	0.671751
1028	H	0.941784	0.286987	0.671748
1029	H	0.622929	0.322695	0.671748
1030	H	0.622927	0.377562	0.671748
1031	C	0.765537	0.288022	0.005075
1032	C	0.765361	0.254463	0.005085
1033	C	0.73195	0.221107	0.005152
1034	C	0.699176	0.221666	0.005213
1035	C	0.698626	0.254445	0.005154
1036	C	0.73198	0.287852	0.005085
1037	C	0.798962	0.255434	0.005064
1038	C	0.732946	0.32145	0.005063
1039	H	0.675117	0.197611	0.005254
1040	C	0.799163	0.32165	0.005075
1041	C	0.832726	0.321829	0.005087
1042	C	0.866081	0.35524	0.005157
1043	C	0.865518	0.388013	0.005217
1044	C	0.832739	0.388562	0.005153
1045	C	0.799336	0.355207	0.005083
1046	C	0.831754	0.288228	0.005066
1047	H	0.889576	0.412074	0.005258
1048	C	0.765736	0.354239	0.00506
1049	H	0.855074	0.286991	0.00508
1050	H	0.8002	0.232116	0.005077
1051	H	0.764495	0.377557	0.005075
1052	H	0.709628	0.322689	0.005076
1053	C	0.799168	0.054837	0.005073
1054	C	0.832727	0.088222	0.005084
1055	C	0.866083	0.08817	0.005157
1056	C	0.865526	0.054837	0.005223
1057	C	0.832748	0.021506	0.005157
1058	C	0.799342	0.021453	0.005083
1059	C	0.831753	0.120851	0.00506
1060	C	0.765745	0.48882	0.00506
1061	H	0.889582	0.054835	0.005264
1062	C	0.765538	0.054835	0.005073
1063	C	0.76536	0.088217	0.005083
1064	C	0.731947	0.088159	0.005153
1065	C	0.699174	0.054824	0.005215
1066	C	0.698627	0.021496	0.005153
1067	C	0.731983	0.021448	0.005083
1068	C	0.79896	0.120849	0.00506
1069	H	0.675114	0.054818	0.005257
1070	C	0.732952	0.488818	0.00506
1071	H	0.800195	0.145404	0.005075
1072	H	0.855071	0.145408	0.005076
1073	H	0.709637	0.464261	0.005075
1074	H	0.764507	0.464264	0.005076
1075	C	0.647695	0.2525	0.712765
1076	C	0.614672	0.252498	0.712769
1077	C	0.597717	0.252338	0.671825
1078	C	0.614736	0.252621	0.964218
1079	C	0.647756	0.252625	0.964218
1080	C	0.664487	0.252326	0.671825
1081	H	0.603453	0.253335	0.934097
1082	H	0.603351	0.253136	0.74289
1083	H	0.659648	0.253128	0.74289
1084	H	0.659748	0.253328	0.934097
1085	C	0.834696	0.472519	0.712759
1086	C	0.834695	0.439497	0.712755
1087	C	0.834857	0.422702	0.671812
1088	C	0.834546	0.439426	0.964208
1089	C	0.834545	0.472445	0.964215
1090	C	0.834871	0.489489	0.671819
1091	H	0.833842	0.427436	0.934087
1092	H	0.834064	0.427542	0.74288
1093	H	0.834073	0.483846	0.742883
1094	H	0.833853	0.48374	0.934094
1095	C	0.614679	0.439486	0.712762
1096	C	0.647698	0.472511	0.712762
1097	C	0.664491	0.489476	0.671822
1098	C	0.647765	0.472445	0.964215
1099	C	0.614735	0.439434	0.964215
1100	C	0.597706	0.422702	0.671819
1101	H	0.659751	0.483737	0.934094
1102	H	0.659648	0.483836	0.742886
1103	H	0.603345	0.427539	0.742886
1104	H	0.603448	0.427441	0.934094
1105	C	0.91704	0.357237	0.712765
1106	C	0.950061	0.357237	0.712765
1107	C	0.967009	0.35737	0.671825
1108	C	0.949991	0.357094	0.964221
1109	C	0.916976	0.357107	0.964221
1110	C	0.900227	0.357372	0.671825
1111	H	0.961284	0.356401	0.934097
1112	H	0.961387	0.35661	0.74289
1113	H	0.905085	0.356607	0.74289
1114	H	0.904984	0.356401	0.934101
1115	C	0.729962	0.13713	0.712759
1116	C	0.729959	0.17015	0.712759
1117	C	0.729818	0.18696	0.671819
1118	C	0.730084	0.17021	0.964215
1119	C	0.730088	0.137191	0.964215
1120	C	0.72981	0.120171	0.671819
1121	H	0.730793	0.182203	0.934094
1122	H	0.730593	0.182106	0.742883
1123	H	0.730587	0.125804	0.742883
1124	H	0.730786	0.125902	0.934094
1125	C	0.950068	0.17015	0.712759
1126	C	0.917046	0.137128	0.712759
1127	C	0.900228	0.120187	0.671819
1128	C	0.916976	0.1372	0.964215
1129	C	0.949997	0.170221	0.964215
1130	C	0.967017	0.186962	0.671819
1131	H	0.90499	0.125907	0.934094
1132	H	0.905094	0.125801	0.742883
1133	H	0.961399	0.182097	0.742883
1134	H	0.961295	0.182203	0.934094
1135	C	0.532353	0.821652	0.005082
1136	C	0.998972	0.821827	0.00509
1137	C	0.999025	0.855236	0.005157
1138	C	0.532356	0.888012	0.005219
1139	C	0.565687	0.888564	0.00516
1140	C	0.565738	0.855209	0.005092
1141	C	0.966341	0.788224	0.005069
1142	C	0.598371	0.854243	0.005069
1143	H	0.532359	0.912071	0.005257
1144	C	0.532354	0.788024	0.005082
1145	C	0.998974	0.754464	0.005091
1146	C	0.99903	0.721109	0.005162
1147	C	0.532365	0.721672	0.005223
1148	C	0.565693	0.75445	0.00516
1149	C	0.565742	0.787856	0.005092
1150	C	0.966343	0.755432	0.005069
1151	H	0.53237	0.697616	0.005261
1152	C	0.598372	0.821454	0.005069
1153	H	0.941786	0.732115	0.005084
1154	H	0.941785	0.786988	0.005082
1155	H	0.62293	0.822696	0.005081
1156	H	0.622927	0.877561	0.005082
1157	C	0.765539	0.788024	0.338409
1158	C	0.765363	0.754464	0.338419
1159	C	0.731951	0.721107	0.338486
1160	C	0.699177	0.721667	0.338547
1161	C	0.698625	0.754445	0.338486
1162	C	0.731981	0.787851	0.338419
1163	C	0.798964	0.755435	0.338395
1164	C	0.732947	0.821449	0.338395
1165	H	0.675116	0.697611	0.338587
1166	C	0.799166	0.821652	0.338409
1167	C	0.832725	0.821828	0.338419
1168	C	0.866079	0.855239	0.33849
1169	C	0.865521	0.888015	0.33855
1170	C	0.832741	0.888564	0.338486
1171	C	0.799334	0.855207	0.338416
1172	C	0.831756	0.788227	0.338399
1173	H	0.889577	0.912074	0.338591
1174	C	0.765735	0.854238	0.338392
1175	H	0.855075	0.786991	0.338412
1176	H	0.800199	0.732115	0.338409
1177	H	0.764496	0.877556	0.338409
1178	H	0.709629	0.822688	0.338409
1179	C	0.799169	0.554837	0.338405
1180	C	0.832726	0.588221	0.338416
1181	C	0.866084	0.58817	0.33849
1182	C	0.865528	0.554837	0.338557
1183	C	0.83275	0.521507	0.33849
1184	C	0.799341	0.521453	0.338416
1185	C	0.831754	0.620851	0.338392
1186	C	0.765744	0.98882	0.338392
1187	H	0.889584	0.554834	0.338597
1188	C	0.76554	0.554834	0.338405
1189	C	0.765359	0.588216	0.338416
1190	C	0.731948	0.588159	0.338486
1191	C	0.699175	0.554824	0.338547
1192	C	0.698626	0.521496	0.338486
1193	C	0.731984	0.521447	0.338416
1194	C	0.798959	0.620848	0.338392
1195	H	0.675113	0.554818	0.338591
1196	C	0.732953	0.988817	0.338392
1197	H	0.800195	0.645405	0.338409
1198	H	0.85507	0.645408	0.338409
1199	H	0.709637	0.96426	0.338409
1200	H	0.764506	0.964263	0.338409
1201	C	0.647696	0.7525	0.0461
1202	C	0.614673	0.752497	0.046102
1203	C	0.597716	0.752337	0.00516
1204	C	0.614736	0.752621	0.297552
1205	C	0.647756	0.752624	0.297552
1206	C	0.664488	0.752326	0.005159
1207	H	0.603453	0.753335	0.267432
1208	H	0.603352	0.753136	0.076225
1209	H	0.659649	0.753128	0.076223
1210	H	0.659748	0.753327	0.267431
1211	C	0.834695	0.972517	0.046093
1212	C	0.834697	0.939498	0.04609
1213	C	0.834857	0.9227	0.005147
1214	C	0.834548	0.939427	0.297544
1215	C	0.834547	0.972446	0.297548
1216	C	0.834871	0.989488	0.005154
1217	H	0.833843	0.927437	0.267422
1218	H	0.834062	0.927541	0.076213
1219	H	0.834073	0.983845	0.076217
1220	H	0.833852	0.983741	0.267427
1221	C	0.61468	0.939487	0.046096
1222	C	0.647696	0.972509	0.046097
1223	C	0.66449	0.989474	0.005157
1224	C	0.647763	0.972444	0.29755
1225	C	0.614734	0.939433	0.297549
1226	C	0.597708	0.922703	0.005154
1227	H	0.659751	0.983738	0.267428
1228	H	0.659649	0.983837	0.07622
1229	H	0.603346	0.927538	0.076219
1230	H	0.603447	0.927439	0.267428
1231	C	0.917041	0.857238	0.046099
1232	C	0.950062	0.857238	0.046099
1233	C	0.967009	0.857368	0.00516
1234	C	0.949991	0.857092	0.297555
1235	C	0.916976	0.857105	0.297554
1236	C	0.900227	0.857371	0.00516
1237	H	0.961283	0.856402	0.267433
1238	H	0.961388	0.856611	0.076223
1239	H	0.905086	0.856608	0.076223
1240	H	0.904985	0.856402	0.267433
1241	C	0.729962	0.637129	0.046092
1242	C	0.729959	0.670148	0.046092
1243	C	0.729816	0.686959	0.005153
1244	C	0.730083	0.67021	0.297549
1245	C	0.730086	0.637191	0.297549
1246	C	0.729811	0.620172	0.005154
1247	H	0.730794	0.682203	0.267427
1248	H	0.730593	0.682106	0.076215
1249	H	0.730588	0.625805	0.076216
1250	H	0.730786	0.625901	0.267427
1251	C	0.950067	0.670151	0.046094
1252	C	0.917046	0.637127	0.046094
1253	C	0.90023	0.620188	0.005153
1254	C	0.916976	0.637199	0.297548
1255	C	0.949995	0.670221	0.297549
1256	C	0.967017	0.686962	0.005154
1257	H	0.90499	0.625907	0.267426
1258	H	0.905095	0.625802	0.076217
1259	H	0.961397	0.682096	0.076218
1260	H	0.961296	0.682203	0.267427
1261	C	0.532354	0.821652	0.338416
1262	C	0.998972	0.821828	0.338422
1263	C	0.999025	0.855236	0.33849
1264	C	0.532356	0.888012	0.338554
1265	C	0.565687	0.888564	0.338493
1266	C	0.565738	0.855209	0.338426
1267	C	0.966341	0.788224	0.338402
1268	C	0.598371	0.854244	0.338402
1269	H	0.532359	0.912071	0.338591
1270	C	0.532355	0.788024	0.338416
1271	C	0.998974	0.754464	0.338426
1272	C	0.99903	0.721109	0.338496
1273	C	0.532364	0.721669	0.338557
1274	C	0.565693	0.75445	0.338493
1275	C	0.565742	0.787856	0.338426
1276	C	0.966341	0.755432	0.338402
1277	H	0.53237	0.697616	0.338594
1278	C	0.598372	0.821454	0.338402
1279	H	0.941787	0.732115	0.338416
1280	H	0.941785	0.786988	0.338416
1281	H	0.622931	0.822696	0.338416
1282	H	0.622927	0.877561	0.338416
1283	C	0.765538	0.788022	0.671741
1284	C	0.765361	0.754464	0.671751
1285	C	0.731952	0.721107	0.671819
1286	C	0.699178	0.721667	0.671879
1287	C	0.698625	0.754445	0.671819
1288	C	0.731979	0.787851	0.671751
1289	C	0.798964	0.755435	0.671731
1290	C	0.732947	0.821449	0.671728
1291	H	0.675116	0.697611	0.67192
1292	C	0.799165	0.821649	0.671741
1293	C	0.832725	0.821828	0.671751
1294	C	0.86608	0.855239	0.671822
1295	C	0.865521	0.888015	0.671883
1296	C	0.832742	0.888564	0.671819
1297	C	0.799335	0.855207	0.671748
1298	C	0.831756	0.788227	0.671731
1299	H	0.889575	0.912074	0.671923
1300	C	0.765735	0.854238	0.671728
1301	H	0.855075	0.786991	0.671745
1302	H	0.800199	0.732115	0.671745
1303	H	0.764496	0.877556	0.671741
1304	H	0.709629	0.822688	0.671741
1305	C	0.799167	0.554837	0.671738
1306	C	0.832726	0.588222	0.671748
1307	C	0.866085	0.58817	0.671822
1308	C	0.865528	0.554837	0.671889
1309	C	0.832751	0.521507	0.671822
1310	C	0.799341	0.521453	0.671748
1311	C	0.831755	0.620851	0.671728
1312	C	0.765744	0.98882	0.671724
1313	H	0.889584	0.554835	0.67193
1314	C	0.76554	0.554835	0.671738
1315	C	0.765359	0.588216	0.671748
1316	C	0.731949	0.58816	0.671819
1317	C	0.699176	0.554824	0.671883
1318	C	0.698627	0.521496	0.671819
1319	C	0.731984	0.521448	0.671748
1320	C	0.798959	0.620849	0.671724
1321	H	0.675113	0.554819	0.671923
1322	C	0.732954	0.988817	0.671724
1323	H	0.800195	0.645405	0.671741
1324	H	0.855071	0.645408	0.671741
1325	H	0.709637	0.96426	0.671741
1326	H	0.764506	0.964263	0.671741
1327	C	0.647696	0.7525	0.379433
1328	C	0.614673	0.752498	0.379436
1329	C	0.597716	0.752338	0.338493
1330	C	0.614737	0.752621	0.630886
1331	C	0.647757	0.752624	0.630886
1332	C	0.664486	0.752327	0.338493
1333	H	0.603453	0.753335	0.600765
1334	H	0.603352	0.753136	0.409557
1335	H	0.659649	0.753128	0.409557
1336	H	0.659748	0.753327	0.600765
1337	C	0.834694	0.972517	0.379426
1338	C	0.834695	0.939498	0.379423
1339	C	0.834857	0.9227	0.338479
1340	C	0.834548	0.939428	0.630875
1341	C	0.834547	0.972447	0.630879
1342	C	0.834871	0.989488	0.338486
1343	H	0.833842	0.927434	0.600755
1344	H	0.834062	0.927541	0.409547
1345	H	0.834071	0.983845	0.40955
1346	H	0.833851	0.983739	0.600761
1347	C	0.61468	0.939487	0.379429
1348	C	0.647697	0.972509	0.379429
1349	C	0.66449	0.989474	0.33849
1350	C	0.647763	0.972444	0.630882
1351	C	0.614735	0.939433	0.630882
1352	C	0.597708	0.922703	0.338486
1353	H	0.65975	0.983736	0.600761
1354	H	0.659649	0.983837	0.409554
1355	H	0.603346	0.927538	0.409554
1356	H	0.603447	0.92744	0.600761
1357	C	0.917042	0.857239	0.379433
1358	C	0.950063	0.857239	0.379433
1359	C	0.967009	0.857368	0.338493
1360	C	0.949991	0.857092	0.630889
1361	C	0.916976	0.857106	0.630889
1362	C	0.900227	0.857371	0.338493
1363	H	0.961284	0.856402	0.600765
1364	H	0.961388	0.856611	0.409557
1365	H	0.905086	0.856609	0.409557
1366	H	0.904985	0.856402	0.600765
1367	C	0.729963	0.63713	0.379426
1368	C	0.729959	0.670149	0.379426
1369	C	0.729816	0.686959	0.338486
1370	C	0.730083	0.67021	0.630882
1371	C	0.730086	0.637191	0.630882
1372	C	0.729811	0.620172	0.338486
1373	H	0.730794	0.682203	0.600761
1374	H	0.730594	0.682107	0.409547
1375	H	0.730587	0.625802	0.40955
1376	H	0.730787	0.625902	0.600761
1377	C	0.950066	0.670149	0.379426
1378	C	0.917047	0.637127	0.379426
1379	C	0.900229	0.620185	0.338486
1380	C	0.916976	0.637199	0.630882
1381	C	0.949996	0.670221	0.630882
1382	C	0.967018	0.686962	0.338486
1383	H	0.904991	0.625907	0.600758
1384	H	0.905094	0.6258	0.40955
1385	H	0.961397	0.682096	0.40955
1386	H	0.961294	0.682203	0.600761
1387	C	0.532354	0.821652	0.671748
1388	C	0.99897	0.821828	0.671755
1389	C	0.999023	0.855237	0.671822
1390	C	0.532357	0.888012	0.671886
1391	C	0.565687	0.888564	0.671825
1392	C	0.565738	0.85521	0.671758
1393	C	0.966342	0.788225	0.671735
1394	C	0.598371	0.854244	0.671735
1395	H	0.53236	0.912071	0.671923
1396	C	0.532355	0.788024	0.671748
1397	C	0.998975	0.754464	0.671758
1398	C	0.99903	0.72111	0.671829
1399	C	0.532364	0.72167	0.671889
1400	C	0.565693	0.754451	0.671825
1401	C	0.565742	0.787857	0.671758
1402	C	0.966342	0.755433	0.671735
1403	H	0.53237	0.697616	0.671926
1404	C	0.598372	0.821455	0.671735
1405	H	0.941787	0.732115	0.671751
1406	H	0.941786	0.786988	0.671748
1407	H	0.622931	0.822696	0.671748
1408	H	0.622927	0.877561	0.671748
1409	C	0.765539	0.788024	0.005075
1410	C	0.765363	0.754464	0.005085
1411	C	0.731951	0.721106	0.005152
1412	C	0.699177	0.721666	0.005213
1413	C	0.698624	0.754445	0.005154
1414	C	0.731981	0.787851	0.005085
1415	C	0.798963	0.755435	0.005064
1416	C	0.732947	0.821449	0.005063
1417	H	0.675115	0.69761	0.005254
1418	C	0.799165	0.821652	0.005075
1419	C	0.832724	0.821827	0.005087
1420	C	0.866079	0.855239	0.005157
1421	C	0.86552	0.888014	0.005217
1422	C	0.832741	0.888564	0.005153
1423	C	0.799334	0.855206	0.005083
1424	C	0.831755	0.788227	0.005066
1425	H	0.889576	0.912073	0.005258
1426	C	0.765736	0.854241	0.00506
1427	H	0.855075	0.78699	0.00508
1428	H	0.800201	0.732115	0.005077
1429	H	0.764496	0.877555	0.005075
1430	H	0.709628	0.822688	0.005076
1431	C	0.799169	0.554837	0.005073
1432	C	0.832725	0.588221	0.005084
1433	C	0.866084	0.58817	0.005157
1434	C	0.865527	0.554837	0.005223
1435	C	0.83275	0.521507	0.005157
1436	C	0.799341	0.521453	0.005083
1437	C	0.831754	0.620851	0.00506
1438	C	0.765744	0.988819	0.00506
1439	H	0.889583	0.554834	0.005264
1440	C	0.765539	0.554834	0.005073
1441	C	0.765359	0.588216	0.005083
1442	C	0.731948	0.588159	0.005153
1443	C	0.699175	0.554823	0.005215
1444	C	0.698626	0.521496	0.005153
1445	C	0.731984	0.521447	0.005083
1446	C	0.798959	0.620848	0.00506
1447	H	0.675115	0.554818	0.005257
1448	C	0.732953	0.988817	0.00506
1449	H	0.800195	0.645405	0.005075
1450	H	0.855072	0.645407	0.005076
1451	H	0.709637	0.96426	0.005075
1452	H	0.764508	0.964263	0.005076
1453	C	0.647696	0.7525	0.712765
1454	C	0.614674	0.752498	0.712769
1455	C	0.597716	0.752338	0.671825
1456	C	0.614737	0.752622	0.964218
1457	C	0.647757	0.752624	0.964218
1458	C	0.664486	0.752327	0.671825
1459	H	0.603453	0.753336	0.934097
1460	H	0.603352	0.753137	0.74289
1461	H	0.659649	0.753128	0.74289
1462	H	0.659749	0.753328	0.934097
1463	C	0.834694	0.972518	0.712759
1464	C	0.834695	0.939499	0.712755
1465	C	0.834857	0.922701	0.671812
1466	C	0.834548	0.939428	0.964208
1467	C	0.834547	0.972447	0.964215
1468	C	0.834872	0.989488	0.671819
1469	H	0.833842	0.927435	0.934087
1470	H	0.834062	0.927541	0.74288
1471	H	0.834071	0.983845	0.742883
1472	H	0.833851	0.983739	0.934094
1473	C	0.614679	0.939485	0.712762
1474	C	0.647697	0.97251	0.712762
1475	C	0.66449	0.989475	0.671822
1476	C	0.647764	0.972444	0.964215
1477	C	0.614735	0.939433	0.964215
1478	C	0.597708	0.922703	0.671819
1479	H	0.65975	0.983736	0.934094
1480	H	0.659649	0.983837	0.742886
1481	H	0.603346	0.927538	0.742886
1482	H	0.603447	0.92744	0.934094
1483	C	0.917042	0.857239	0.712765
1484	C	0.950063	0.857239	0.712765
1485	C	0.967009	0.857369	0.671825
1486	C	0.949991	0.857092	0.964221
1487	C	0.916977	0.857106	0.964221
1488	C	0.900228	0.857371	0.671825
1489	H	0.961284	0.856402	0.934097
1490	H	0.961389	0.856612	0.74289
1491	H	0.905087	0.856609	0.74289
1492	H	0.904986	0.856402	0.934101
1493	C	0.729963	0.63713	0.712759
1494	C	0.72996	0.670149	0.712759
1495	C	0.729816	0.68696	0.671819
1496	C	0.730083	0.670211	0.964215
1497	C	0.730087	0.637192	0.964215
1498	C	0.729812	0.620172	0.671819
1499	H	0.730795	0.682203	0.934094
1500	H	0.730594	0.682107	0.742883
1501	H	0.730585	0.625803	0.742883
1502	H	0.730787	0.625902	0.934094
1503	C	0.950066	0.670149	0.712759
1504	C	0.917047	0.637127	0.712759
1505	C	0.900227	0.620186	0.671819
1506	C	0.916977	0.6372	0.964215
1507	C	0.949996	0.670222	0.964215
1508	C	0.967018	0.686962	0.671819
1509	H	0.904991	0.625907	0.934094
1510	H	0.905092	0.6258	0.742883
1511	H	0.961398	0.682096	0.742883
1512	H	0.961294	0.682203	0.934094
