data_C468H504N72_2018-02-15_10:34:05
#******************************************
#
# CIF file created by Zeo++
# Zeo++ is an open source package to
# analyze microporous materials
#
#*******************************************

_cell_length_a		43.479   
_cell_length_b		43.479   
_cell_length_c		30.0098   
_cell_angle_alpha		90   
_cell_angle_beta		90   
_cell_angle_gamma		120   

_symmetry_space_group_name_H-M		'P1'
_symmetry_Int_Tables_number		1
_symmetry_cell_setting		Monoclinic

loop_
_symmetry_equiv_pos_as_xyz
'+x,+y,+z'

loop_
_atom_site_label
_atom_site_type_symbol
_atom_site_fract_x
_atom_site_fract_y
_atom_site_fract_z
1	C	0.183491	0.312682	0.058559
2	C	0.146042	0.295895	0.058758
3	C	0.128866	0.316102	0.058558
4	C	0.149528	0.353551	0.058757
5	C	0.186911	0.370726	0.058559
6	C	0.203699	0.350064	0.058767
7	H	0.137218	0.36837	0.058741
8	H	0.230829	0.362374	0.058739
9	H	0.131221	0.268763	0.058742
10	N	0.201699	0.293361	0.058174
11	H	0.193366	0.276199	0.084792
12	N	0.206232	0.408255	0.058173
13	H	0.223389	0.417082	0.084795
14	N	0.091338	0.297894	0.058175
15	H	0.08251	0.306226	0.084795
16	C	0.314585	0.185619	0.943808
17	C	0.352105	0.203827	0.943489
18	C	0.370704	0.185007	0.943825
19	C	0.351392	0.147485	0.943512
20	C	0.313972	0.128885	0.943818
21	C	0.295766	0.1482	0.943505
22	H	0.364711	0.133644	0.944258
23	H	0.268606	0.134881	0.944248
24	H	0.365947	0.230986	0.944255
25	N	0.294996	0.203539	0.946211
26	H	0.302573	0.221406	0.920409
27	N	0.29605	0.091375	0.946214
28	H	0.278183	0.081088	0.920413
29	N	0.408215	0.204594	0.946221
30	H	0.418504	0.197012	0.920423
31	C	0.224075	0.260529	0.344601
32	C	0.250725	0.26691	0.042882
33	C	0.274944	0.254442	0.036721
34	C	0.27284	0.235187	0.997191
35	C	0.2459	0.228639	0.299145
36	H	0.252749	0.281121	0.070937
37	C	0.22209	0.241119	0.306005
38	H	0.24305	0.214545	0.2707
39	H	0.203162	0.235959	0.282316
40	C	0.302008	0.26201	0.071953
41	H	0.299718	0.276542	0.100237
42	H	0.32864	0.278013	0.058192
43	H	0.299024	0.237171	0.084738
44	C	0.198594	0.273833	0.349493
45	H	0.171571	0.251217	0.34685
46	H	0.203033	0.291513	0.32124
47	C	0.298034	0.221678	0.98946
48	H	0.325136	0.244066	0.992273
49	H	0.293735	0.202968	0.016379
50	C	0.239055	0.46346	0.344597
51	C	0.232675	0.483729	0.04288
52	C	0.245148	0.020418	0.036723
53	C	0.2644	0.03757	0.997191
54	C	0.270951	0.017179	0.299146
55	H	0.21847	0.471544	0.070938
56	C	0.258469	0.480887	0.306005
57	H	0.285046	0.028424	0.270704
58	H	0.263635	0.467122	0.282317
59	C	0.237581	0.039913	0.071957
60	H	0.223048	0.02309	0.100241
61	H	0.221578	0.050543	0.058198
62	H	0.262421	0.061767	0.084743
63	C	0.225762	0.424678	0.349496
64	H	0.248383	0.420277	0.34686
65	H	0.208088	0.411434	0.32124
66	C	0.277912	0.076273	0.989464
67	H	0.255526	0.080989	0.992283
68	H	0.296623	0.090682	0.016384
69	C	0.03613	0.275514	0.344601
70	C	0.01586	0.248868	0.042889
71	C	0.479174	0.22465	0.03673
72	C	0.46202	0.226752	0.997201
73	C	0.482411	0.253692	0.299152
74	H	0.028048	0.246844	0.070942
75	C	0.018703	0.277498	0.306008
76	H	0.471165	0.256542	0.270709
77	H	0.032469	0.296428	0.28232
78	C	0.459678	0.197588	0.071963
79	H	0.476501	0.199879	0.100248
80	H	0.449051	0.170955	0.058204
81	H	0.437821	0.200572	0.084748
82	C	0.074913	0.300999	0.349496
83	H	0.079318	0.328021	0.346853
84	H	0.088156	0.296564	0.321241
85	C	0.423317	0.20156	0.989474
86	H	0.4186	0.174458	0.992293
87	H	0.408908	0.205865	0.01639
88	C	0.183491	0.312682	0.391892
89	C	0.146042	0.295895	0.392092
90	C	0.128866	0.316102	0.391892
91	C	0.149528	0.353551	0.392092
92	C	0.186911	0.370726	0.391892
93	C	0.203699	0.350064	0.392099
94	H	0.137218	0.36837	0.392075
95	H	0.230829	0.362374	0.392072
96	H	0.131221	0.268763	0.392075
97	N	0.201699	0.293361	0.391505
98	H	0.193366	0.276199	0.418127
99	N	0.206232	0.408255	0.391505
100	H	0.223389	0.417082	0.418127
101	N	0.091338	0.297894	0.391509
102	H	0.08251	0.306226	0.418127
103	C	0.314585	0.185619	0.277142
104	C	0.352105	0.203827	0.276823
105	C	0.370704	0.185007	0.277157
106	C	0.351392	0.147485	0.276846
107	C	0.313972	0.128885	0.277151
108	C	0.295766	0.1482	0.276839
109	H	0.364711	0.133644	0.277593
110	H	0.268606	0.134881	0.277582
111	H	0.365947	0.230986	0.277588
112	N	0.294996	0.203539	0.279543
113	H	0.302573	0.221406	0.253742
114	N	0.29605	0.091375	0.279548
115	H	0.278183	0.081088	0.253748
116	N	0.408215	0.204594	0.279554
117	H	0.418504	0.197012	0.253756
118	C	0.224075	0.260529	0.677935
119	C	0.250725	0.26691	0.376214
120	C	0.274944	0.254442	0.370056
121	C	0.27284	0.235187	0.330524
122	C	0.2459	0.228639	0.63248
123	H	0.252749	0.281121	0.404271
124	C	0.22209	0.241119	0.639338
125	H	0.24305	0.214545	0.604033
126	H	0.203162	0.235959	0.615649
127	C	0.302008	0.26201	0.405288
128	H	0.299718	0.276542	0.433572
129	H	0.32864	0.278013	0.391525
130	H	0.299024	0.237171	0.41807
131	C	0.198594	0.273833	0.682827
132	H	0.171571	0.251217	0.680181
133	H	0.203033	0.291513	0.654573
134	C	0.298034	0.221678	0.322793
135	H	0.325136	0.244066	0.325607
136	H	0.293735	0.202968	0.349712
137	C	0.239055	0.46346	0.677932
138	C	0.232675	0.483729	0.376214
139	C	0.245148	0.020418	0.370056
140	C	0.2644	0.03757	0.330526
141	C	0.270951	0.017179	0.63248
142	H	0.21847	0.471544	0.404271
143	C	0.258469	0.480887	0.639338
144	H	0.285046	0.028424	0.604036
145	H	0.263635	0.467122	0.615652
146	C	0.237581	0.039913	0.405291
147	H	0.223048	0.02309	0.433575
148	H	0.221578	0.050543	0.391532
149	H	0.262421	0.061767	0.418077
150	C	0.225762	0.424678	0.682827
151	H	0.248383	0.420277	0.680191
152	H	0.208088	0.411434	0.654573
153	C	0.277912	0.076273	0.322799
154	H	0.255526	0.080989	0.325615
155	H	0.296623	0.090682	0.349716
156	C	0.03613	0.275514	0.677935
157	C	0.01586	0.248868	0.37622
158	C	0.479174	0.22465	0.370062
159	C	0.46202	0.226752	0.330533
160	C	0.482411	0.253692	0.632487
161	H	0.028048	0.246844	0.404275
162	C	0.018703	0.277498	0.639341
163	H	0.471165	0.256542	0.604043
164	H	0.032469	0.296428	0.615652
165	C	0.459678	0.197588	0.405298
166	H	0.476501	0.199879	0.433582
167	H	0.449051	0.170955	0.391539
168	H	0.437821	0.200572	0.41808
169	C	0.074913	0.300999	0.682827
170	H	0.079318	0.328021	0.680188
171	H	0.088156	0.296564	0.654576
172	C	0.423317	0.20156	0.322807
173	H	0.4186	0.174458	0.325627
174	H	0.408908	0.205865	0.349722
175	C	0.183491	0.312682	0.725226
176	C	0.146042	0.295895	0.725423
177	C	0.128866	0.316102	0.725226
178	C	0.149528	0.353551	0.725423
179	C	0.186911	0.370726	0.725226
180	C	0.203699	0.350064	0.725433
181	H	0.137218	0.36837	0.725406
182	H	0.230829	0.362374	0.725406
183	H	0.131221	0.268763	0.72541
184	N	0.201699	0.293361	0.72484
185	H	0.193366	0.276199	0.751458
186	N	0.206232	0.408255	0.72484
187	H	0.223389	0.417082	0.751461
188	N	0.091338	0.297894	0.72484
189	H	0.08251	0.306226	0.751461
190	C	0.314585	0.185619	0.610477
191	C	0.352105	0.203827	0.610157
192	C	0.370704	0.185007	0.610491
193	C	0.351392	0.147485	0.610177
194	C	0.313972	0.128885	0.610484
195	C	0.295766	0.1482	0.610171
196	H	0.364711	0.133644	0.610927
197	H	0.268606	0.134881	0.610914
198	H	0.365947	0.230986	0.61092
199	N	0.294996	0.203539	0.612877
200	H	0.302573	0.221406	0.587075
201	N	0.29605	0.091375	0.612883
202	H	0.278183	0.081088	0.587082
203	N	0.408215	0.204594	0.612886
204	H	0.418504	0.197012	0.587088
205	C	0.224075	0.260529	0.011268
206	C	0.250725	0.26691	0.709548
207	C	0.274944	0.254442	0.703387
208	C	0.27284	0.235187	0.663857
209	C	0.2459	0.228639	0.965811
210	H	0.252749	0.281121	0.737602
211	C	0.22209	0.241119	0.972672
212	H	0.24305	0.214545	0.937367
213	H	0.203162	0.235959	0.948983
214	C	0.302008	0.26201	0.738619
215	H	0.299718	0.276542	0.766903
216	H	0.32864	0.278013	0.72486
217	H	0.299024	0.237171	0.751405
218	C	0.198594	0.273833	0.016159
219	H	0.171571	0.251217	0.013516
220	H	0.203033	0.291513	0.987907
221	C	0.298034	0.221678	0.656126
222	H	0.325136	0.244066	0.658941
223	H	0.293735	0.202968	0.683044
224	C	0.239055	0.46346	0.011264
225	C	0.232675	0.483729	0.709548
226	C	0.245148	0.020418	0.70339
227	C	0.2644	0.03757	0.66386
228	C	0.270951	0.017179	0.965815
229	H	0.21847	0.471544	0.737606
230	C	0.258469	0.480887	0.972672
231	H	0.285046	0.028424	0.937371
232	H	0.263635	0.467122	0.948983
233	C	0.237581	0.039913	0.738622
234	H	0.223048	0.02309	0.766906
235	H	0.221578	0.050543	0.724867
236	H	0.262421	0.061767	0.751408
237	C	0.225762	0.424678	0.016161
238	H	0.248383	0.420277	0.013525
239	H	0.208088	0.411434	0.987907
240	C	0.277912	0.076273	0.656132
241	H	0.255526	0.080989	0.658948
242	H	0.296623	0.090682	0.68305
243	C	0.03613	0.275514	0.011269
244	C	0.01586	0.248868	0.709555
245	C	0.479174	0.22465	0.703397
246	C	0.46202	0.226752	0.663867
247	C	0.482411	0.253692	0.965818
248	H	0.028048	0.246844	0.737609
249	C	0.018703	0.277498	0.972676
250	H	0.471165	0.256542	0.937374
251	H	0.032469	0.296428	0.948987
252	C	0.459678	0.197588	0.738629
253	H	0.476501	0.199879	0.766913
254	H	0.449051	0.170955	0.72487
255	H	0.437821	0.200572	0.751415
256	C	0.074913	0.300999	0.016162
257	H	0.079318	0.328021	0.01352
258	H	0.088156	0.296564	0.987907
259	C	0.423317	0.20156	0.656139
260	H	0.4186	0.174458	0.658961
261	H	0.408908	0.205865	0.683057
262	C	0.18349	0.81268	0.058559
263	C	0.146041	0.795893	0.058758
264	C	0.128865	0.8161	0.058558
265	C	0.149528	0.853549	0.058757
266	C	0.186912	0.870727	0.058559
267	C	0.203699	0.850065	0.058767
268	H	0.137219	0.868371	0.058741
269	H	0.230829	0.862374	0.058739
270	H	0.131221	0.768764	0.058742
271	N	0.201698	0.793359	0.058174
272	H	0.193365	0.776198	0.084792
273	N	0.206232	0.908253	0.058173
274	H	0.223389	0.917083	0.084795
275	N	0.091338	0.797892	0.058175
276	H	0.08251	0.806226	0.084795
277	C	0.314585	0.685617	0.943808
278	C	0.352106	0.703825	0.943489
279	C	0.370705	0.685007	0.943825
280	C	0.351392	0.647486	0.943512
281	C	0.313973	0.628885	0.943818
282	C	0.295766	0.6482	0.943505
283	H	0.36471	0.633644	0.944258
284	H	0.268606	0.634879	0.944248
285	H	0.365948	0.730986	0.944255
286	N	0.294995	0.703539	0.946211
287	H	0.302574	0.721406	0.920409
288	N	0.296051	0.591375	0.946214
289	H	0.278183	0.581087	0.920413
290	N	0.408216	0.704595	0.946221
291	H	0.418503	0.697011	0.920423
292	C	0.224075	0.760529	0.344601
293	C	0.250726	0.76691	0.042882
294	C	0.274944	0.754442	0.036721
295	C	0.272841	0.735187	0.997191
296	C	0.2459	0.728638	0.299145
297	H	0.25275	0.781121	0.070937
298	C	0.222089	0.741118	0.306005
299	H	0.24305	0.714544	0.2707
300	H	0.203161	0.735957	0.282316
301	C	0.302009	0.76201	0.071953
302	H	0.299717	0.77654	0.100237
303	H	0.32864	0.778014	0.058192
304	H	0.299025	0.737171	0.084738
305	C	0.198593	0.773831	0.349493
306	H	0.171571	0.751217	0.34685
307	H	0.203032	0.791511	0.32124
308	C	0.298034	0.721677	0.98946
309	H	0.325136	0.744065	0.992273
310	H	0.293735	0.702968	0.016379
311	C	0.239055	0.963461	0.344597
312	C	0.232675	0.98373	0.04288
313	C	0.245147	0.520418	0.036723
314	C	0.2644	0.537569	0.997191
315	C	0.27095	0.517178	0.299146
316	H	0.21847	0.971542	0.070938
317	C	0.25847	0.980888	0.306005
318	H	0.285046	0.528423	0.270704
319	H	0.263634	0.96712	0.282317
320	C	0.237581	0.539914	0.071957
321	H	0.223048	0.52309	0.100241
322	H	0.221577	0.550543	0.058198
323	H	0.26242	0.561766	0.084743
324	C	0.225763	0.924679	0.349496
325	H	0.248383	0.920278	0.34686
326	H	0.208088	0.911432	0.32124
327	C	0.277911	0.576272	0.989464
328	H	0.255525	0.580988	0.992283
329	H	0.296623	0.590682	0.016384
330	C	0.036129	0.775512	0.344601
331	C	0.015858	0.748867	0.042889
332	C	0.479172	0.724649	0.03673
333	C	0.462021	0.726753	0.997201
334	C	0.48241	0.75369	0.299152
335	H	0.028048	0.746843	0.070942
336	C	0.018704	0.777499	0.306008
337	H	0.471166	0.756542	0.270709
338	H	0.03247	0.796429	0.28232
339	C	0.459677	0.697587	0.071963
340	H	0.4765	0.699879	0.100248
341	H	0.44905	0.670955	0.058204
342	H	0.437822	0.700572	0.084748
343	C	0.074911	0.800997	0.349496
344	H	0.079317	0.828019	0.346853
345	H	0.088154	0.796562	0.321241
346	C	0.423316	0.70156	0.989474
347	H	0.418599	0.674458	0.992293
348	H	0.408908	0.705865	0.01639
349	C	0.18349	0.81268	0.391892
350	C	0.146041	0.795893	0.392092
351	C	0.128865	0.8161	0.391892
352	C	0.149528	0.853549	0.392092
353	C	0.186912	0.870727	0.391892
354	C	0.203699	0.850065	0.392099
355	H	0.137219	0.868371	0.392075
356	H	0.230829	0.862374	0.392072
357	H	0.131221	0.768764	0.392075
358	N	0.201698	0.793359	0.391505
359	H	0.193365	0.776198	0.418127
360	N	0.206232	0.908253	0.391505
361	H	0.223389	0.917083	0.418127
362	N	0.091338	0.797892	0.391509
363	H	0.08251	0.806226	0.418127
364	C	0.314585	0.685617	0.277143
365	C	0.352106	0.703825	0.276823
366	C	0.370705	0.685007	0.277157
367	C	0.351392	0.647486	0.276846
368	C	0.313973	0.628885	0.277151
369	C	0.295766	0.6482	0.276839
370	H	0.36471	0.633644	0.277593
371	H	0.268606	0.634879	0.277582
372	H	0.365948	0.730986	0.277588
373	N	0.294995	0.703539	0.279543
374	H	0.302574	0.721406	0.253742
375	N	0.296051	0.591375	0.279548
376	H	0.278183	0.581087	0.253748
377	N	0.408216	0.704595	0.279554
378	H	0.418503	0.697011	0.253756
379	C	0.224075	0.760529	0.677935
380	C	0.250726	0.76691	0.376214
381	C	0.274944	0.754442	0.370056
382	C	0.272841	0.735187	0.330524
383	C	0.2459	0.728638	0.63248
384	H	0.25275	0.781121	0.404271
385	C	0.222089	0.741118	0.639338
386	H	0.24305	0.714544	0.604033
387	H	0.203161	0.735957	0.615649
388	C	0.302009	0.76201	0.405288
389	H	0.299717	0.77654	0.433572
390	H	0.32864	0.778014	0.391525
391	H	0.299025	0.737171	0.41807
392	C	0.198593	0.773831	0.682827
393	H	0.171571	0.751217	0.680181
394	H	0.203032	0.791511	0.654573
395	C	0.298034	0.721677	0.322793
396	H	0.325136	0.744065	0.325607
397	H	0.293735	0.702968	0.349712
398	C	0.239055	0.963461	0.677932
399	C	0.232675	0.98373	0.376214
400	C	0.245147	0.520418	0.370056
401	C	0.2644	0.537569	0.330526
402	C	0.27095	0.517178	0.63248
403	H	0.21847	0.971542	0.404271
404	C	0.25847	0.980888	0.639338
405	H	0.285046	0.528423	0.604036
406	H	0.263634	0.96712	0.615652
407	C	0.237581	0.539914	0.405291
408	H	0.223048	0.52309	0.433575
409	H	0.221577	0.550543	0.391532
410	H	0.26242	0.561766	0.418077
411	C	0.225763	0.924679	0.682827
412	H	0.248383	0.920278	0.680191
413	H	0.208088	0.911432	0.654573
414	C	0.277911	0.576272	0.322799
415	H	0.255525	0.580988	0.325615
416	H	0.296623	0.590682	0.349716
417	C	0.036129	0.775512	0.677935
418	C	0.015858	0.748867	0.37622
419	C	0.479172	0.724649	0.370062
420	C	0.462021	0.726753	0.330533
421	C	0.48241	0.75369	0.632487
422	H	0.028048	0.746843	0.404275
423	C	0.018704	0.777499	0.639341
424	H	0.471166	0.756542	0.604043
425	H	0.03247	0.796429	0.615652
426	C	0.459677	0.697587	0.405298
427	H	0.4765	0.699879	0.433582
428	H	0.44905	0.670955	0.391539
429	H	0.437822	0.700572	0.41808
430	C	0.074911	0.800997	0.682827
431	H	0.079317	0.828019	0.680188
432	H	0.088154	0.796562	0.654576
433	C	0.423316	0.70156	0.322807
434	H	0.418599	0.674458	0.325627
435	H	0.408908	0.705865	0.349722
436	C	0.18349	0.81268	0.725226
437	C	0.146041	0.795893	0.725423
438	C	0.128865	0.8161	0.725226
439	C	0.149528	0.853549	0.725423
440	C	0.186912	0.870727	0.725226
441	C	0.203699	0.850065	0.725433
442	H	0.137219	0.868371	0.725406
443	H	0.230829	0.862374	0.725406
444	H	0.131221	0.768764	0.72541
445	N	0.201698	0.793359	0.72484
446	H	0.193365	0.776198	0.751458
447	N	0.206232	0.908253	0.72484
448	H	0.223389	0.917083	0.751461
449	N	0.091338	0.797892	0.72484
450	H	0.08251	0.806226	0.751461
451	C	0.314585	0.685617	0.610477
452	C	0.352106	0.703825	0.610157
453	C	0.370705	0.685007	0.610491
454	C	0.351392	0.647486	0.610177
455	C	0.313973	0.628885	0.610484
456	C	0.295766	0.6482	0.610171
457	H	0.36471	0.633644	0.610927
458	H	0.268606	0.634879	0.610914
459	H	0.365948	0.730986	0.61092
460	N	0.294995	0.703539	0.612877
461	H	0.302574	0.721406	0.587075
462	N	0.296051	0.591375	0.612883
463	H	0.278183	0.581087	0.587082
464	N	0.408216	0.704595	0.612886
465	H	0.418503	0.697011	0.587088
466	C	0.224075	0.760529	0.011268
467	C	0.250726	0.76691	0.709548
468	C	0.274944	0.754442	0.703387
469	C	0.272841	0.735187	0.663857
470	C	0.2459	0.728638	0.965811
471	H	0.25275	0.781121	0.737602
472	C	0.222089	0.741118	0.972672
473	H	0.24305	0.714544	0.937367
474	H	0.203161	0.735957	0.948983
475	C	0.302009	0.76201	0.738619
476	H	0.299717	0.77654	0.766903
477	H	0.32864	0.778014	0.72486
478	H	0.299025	0.737171	0.751405
479	C	0.198593	0.773831	0.016159
480	H	0.171571	0.751217	0.013516
481	H	0.203032	0.791511	0.987907
482	C	0.298034	0.721677	0.656126
483	H	0.325136	0.744065	0.658941
484	H	0.293735	0.702968	0.683044
485	C	0.239055	0.963461	0.011264
486	C	0.232675	0.98373	0.709548
487	C	0.245147	0.520418	0.70339
488	C	0.2644	0.537569	0.66386
489	C	0.27095	0.517178	0.965815
490	H	0.21847	0.971542	0.737606
491	C	0.25847	0.980888	0.972672
492	H	0.285046	0.528423	0.937371
493	H	0.263634	0.96712	0.948983
494	C	0.237581	0.539914	0.738622
495	H	0.223048	0.52309	0.766906
496	H	0.221577	0.550543	0.724867
497	H	0.26242	0.561766	0.751408
498	C	0.225763	0.924679	0.016161
499	H	0.248383	0.920278	0.013525
500	H	0.208088	0.911432	0.987907
501	C	0.277911	0.576272	0.656132
502	H	0.255525	0.580988	0.658948
503	H	0.296623	0.590682	0.68305
504	C	0.036129	0.775512	0.011269
505	C	0.015858	0.748867	0.709555
506	C	0.479172	0.724649	0.703397
507	C	0.462021	0.726753	0.663867
508	C	0.48241	0.75369	0.965818
509	H	0.028048	0.746843	0.737609
510	C	0.018704	0.777499	0.972676
511	H	0.471166	0.756542	0.937374
512	H	0.03247	0.796429	0.948987
513	C	0.459677	0.697587	0.738629
514	H	0.4765	0.699879	0.766913
515	H	0.44905	0.670955	0.72487
516	H	0.437822	0.700572	0.751415
517	C	0.074911	0.800997	0.016162
518	H	0.079317	0.828019	0.01352
519	H	0.088154	0.796562	0.987907
520	C	0.423316	0.70156	0.656139
521	H	0.418599	0.674458	0.658961
522	H	0.408908	0.705865	0.683057
523	C	0.683492	0.312682	0.058559
524	C	0.646043	0.295895	0.058758
525	C	0.628867	0.316102	0.058558
526	C	0.649528	0.353551	0.058757
527	C	0.686911	0.370726	0.058559
528	C	0.703699	0.350064	0.058767
529	H	0.637218	0.36837	0.058741
530	H	0.730829	0.362374	0.058739
531	H	0.631222	0.268763	0.058742
532	N	0.701698	0.293361	0.058174
533	H	0.693366	0.276199	0.084792
534	N	0.706232	0.408255	0.058173
535	H	0.72339	0.417082	0.084795
536	N	0.591338	0.297894	0.058175
537	H	0.582511	0.306226	0.084795
538	C	0.814585	0.185619	0.943808
539	C	0.852105	0.203827	0.943489
540	C	0.870704	0.185007	0.943825
541	C	0.851392	0.147485	0.943512
542	C	0.813972	0.128885	0.943818
543	C	0.795765	0.1482	0.943505
544	H	0.864711	0.133644	0.944258
545	H	0.768606	0.134881	0.944248
546	H	0.865947	0.230986	0.944255
547	N	0.794996	0.203539	0.946211
548	H	0.802573	0.221406	0.920409
549	N	0.79605	0.091375	0.946214
550	H	0.778183	0.081088	0.920413
551	N	0.908215	0.204594	0.946221
552	H	0.918502	0.197012	0.920423
553	C	0.724075	0.260529	0.344601
554	C	0.750725	0.26691	0.042882
555	C	0.774945	0.254442	0.036721
556	C	0.772841	0.235187	0.997191
557	C	0.7459	0.228639	0.299145
558	H	0.75275	0.281121	0.070937
559	C	0.722089	0.241119	0.306005
560	H	0.743051	0.214545	0.2707
561	H	0.703161	0.235959	0.282316
562	C	0.802009	0.26201	0.071953
563	H	0.799719	0.276542	0.100237
564	H	0.828641	0.278013	0.058192
565	H	0.799024	0.237171	0.084738
566	C	0.698595	0.273833	0.349493
567	H	0.671571	0.251217	0.34685
568	H	0.703032	0.291513	0.32124
569	C	0.798035	0.221678	0.98946
570	H	0.825136	0.244066	0.992273
571	H	0.793735	0.202968	0.016379
572	C	0.739055	0.46346	0.344597
573	C	0.732676	0.483729	0.04288
574	C	0.745148	0.020418	0.036723
575	C	0.7644	0.03757	0.997191
576	C	0.770951	0.017179	0.299146
577	H	0.71847	0.471544	0.070938
578	C	0.758468	0.480887	0.306005
579	H	0.785046	0.028424	0.270704
580	H	0.763635	0.467122	0.282317
581	C	0.737581	0.039913	0.071957
582	H	0.723047	0.02309	0.100241
583	H	0.721578	0.050543	0.058198
584	H	0.762421	0.061767	0.084743
585	C	0.725762	0.424678	0.349496
586	H	0.748382	0.420277	0.34686
587	H	0.708088	0.411434	0.32124
588	C	0.777912	0.076273	0.989464
589	H	0.755525	0.080989	0.992283
590	H	0.796623	0.090682	0.016384
591	C	0.536129	0.275514	0.344601
592	C	0.51586	0.248868	0.042889
593	C	0.979171	0.22465	0.03673
594	C	0.96202	0.226752	0.997201
595	C	0.982411	0.253692	0.299152
596	H	0.528047	0.246844	0.070942
597	C	0.518703	0.277498	0.306008
598	H	0.971165	0.256542	0.270709
599	H	0.532469	0.296428	0.28232
600	C	0.959676	0.197588	0.071963
601	H	0.976501	0.199879	0.100248
602	H	0.949048	0.170955	0.058204
603	H	0.937821	0.200572	0.084748
604	C	0.574914	0.300999	0.349496
605	H	0.579319	0.328021	0.346853
606	H	0.588156	0.296564	0.321241
607	C	0.923317	0.20156	0.989474
608	H	0.9186	0.174458	0.992293
609	H	0.908908	0.205865	0.01639
610	C	0.683492	0.312682	0.391892
611	C	0.646043	0.295895	0.392092
612	C	0.628867	0.316102	0.391892
613	C	0.649528	0.353551	0.392092
614	C	0.686911	0.370726	0.391892
615	C	0.703699	0.350064	0.392099
616	H	0.637218	0.36837	0.392075
617	H	0.730829	0.362374	0.392072
618	H	0.631222	0.268763	0.392075
619	N	0.701698	0.293361	0.391505
620	H	0.693366	0.276199	0.418127
621	N	0.706232	0.408255	0.391505
622	H	0.72339	0.417082	0.418127
623	N	0.591338	0.297894	0.391509
624	H	0.582511	0.306226	0.418127
625	C	0.814585	0.185619	0.277142
626	C	0.852105	0.203827	0.276823
627	C	0.870704	0.185007	0.277157
628	C	0.851392	0.147485	0.276846
629	C	0.813972	0.128885	0.277151
630	C	0.795765	0.1482	0.276839
631	H	0.864711	0.133644	0.277593
632	H	0.768606	0.134881	0.277582
633	H	0.865947	0.230986	0.277588
634	N	0.794996	0.203539	0.279543
635	H	0.802573	0.221406	0.253742
636	N	0.79605	0.091375	0.279548
637	H	0.778183	0.081088	0.253748
638	N	0.908215	0.204594	0.279554
639	H	0.918502	0.197012	0.253756
640	C	0.724075	0.260529	0.677935
641	C	0.750725	0.26691	0.376214
642	C	0.774945	0.254442	0.370056
643	C	0.772841	0.235187	0.330524
644	C	0.7459	0.228639	0.63248
645	H	0.75275	0.281121	0.404271
646	C	0.722089	0.241119	0.639338
647	H	0.743051	0.214545	0.604033
648	H	0.703161	0.235959	0.615649
649	C	0.802009	0.26201	0.405288
650	H	0.799719	0.276542	0.433572
651	H	0.828641	0.278013	0.391525
652	H	0.799024	0.237171	0.41807
653	C	0.698595	0.273833	0.682827
654	H	0.671571	0.251217	0.680181
655	H	0.703032	0.291513	0.654573
656	C	0.798035	0.221678	0.322793
657	H	0.825136	0.244066	0.325607
658	H	0.793735	0.202968	0.349712
659	C	0.739055	0.46346	0.677932
660	C	0.732676	0.483729	0.376214
661	C	0.745148	0.020418	0.370056
662	C	0.7644	0.03757	0.330526
663	C	0.770951	0.017179	0.63248
664	H	0.71847	0.471544	0.404271
665	C	0.758468	0.480887	0.639338
666	H	0.785046	0.028424	0.604036
667	H	0.763635	0.467122	0.615652
668	C	0.737581	0.039913	0.405291
669	H	0.723047	0.02309	0.433575
670	H	0.721578	0.050543	0.391532
671	H	0.762421	0.061767	0.418077
672	C	0.725762	0.424678	0.682827
673	H	0.748382	0.420277	0.680191
674	H	0.708088	0.411434	0.654573
675	C	0.777912	0.076273	0.322799
676	H	0.755525	0.080989	0.325615
677	H	0.796623	0.090682	0.349716
678	C	0.536129	0.275514	0.677935
679	C	0.51586	0.248868	0.37622
680	C	0.979171	0.22465	0.370062
681	C	0.96202	0.226752	0.330533
682	C	0.982411	0.253692	0.632487
683	H	0.528047	0.246844	0.404275
684	C	0.518703	0.277498	0.639341
685	H	0.971165	0.256542	0.604043
686	H	0.532469	0.296428	0.615652
687	C	0.959676	0.197588	0.405298
688	H	0.976501	0.199879	0.433582
689	H	0.949048	0.170955	0.391539
690	H	0.937821	0.200572	0.41808
691	C	0.574914	0.300999	0.682827
692	H	0.579319	0.328021	0.680188
693	H	0.588156	0.296564	0.654576
694	C	0.923317	0.20156	0.322807
695	H	0.9186	0.174458	0.325627
696	H	0.908908	0.205865	0.349722
697	C	0.683492	0.312682	0.725226
698	C	0.646043	0.295895	0.725423
699	C	0.628867	0.316102	0.725226
700	C	0.649528	0.353551	0.725423
701	C	0.686911	0.370726	0.725226
702	C	0.703699	0.350064	0.725433
703	H	0.637218	0.36837	0.725406
704	H	0.730829	0.362374	0.725406
705	H	0.631222	0.268763	0.72541
706	N	0.701698	0.293361	0.72484
707	H	0.693366	0.276199	0.751458
708	N	0.706232	0.408255	0.72484
709	H	0.72339	0.417082	0.751461
710	N	0.591338	0.297894	0.72484
711	H	0.582511	0.306226	0.751461
712	C	0.814585	0.185619	0.610477
713	C	0.852105	0.203827	0.610157
714	C	0.870704	0.185007	0.610491
715	C	0.851392	0.147485	0.610177
716	C	0.813972	0.128885	0.610484
717	C	0.795765	0.1482	0.610171
718	H	0.864711	0.133644	0.610927
719	H	0.768606	0.134881	0.610914
720	H	0.865947	0.230986	0.61092
721	N	0.794996	0.203539	0.612877
722	H	0.802573	0.221406	0.587075
723	N	0.79605	0.091375	0.612883
724	H	0.778183	0.081088	0.587082
725	N	0.908215	0.204594	0.612886
726	H	0.918502	0.197012	0.587088
727	C	0.724075	0.260529	0.011268
728	C	0.750725	0.26691	0.709548
729	C	0.774945	0.254442	0.703387
730	C	0.772841	0.235187	0.663857
731	C	0.7459	0.228639	0.965811
732	H	0.75275	0.281121	0.737602
733	C	0.722089	0.241119	0.972672
734	H	0.743051	0.214545	0.937367
735	H	0.703161	0.235959	0.948983
736	C	0.802009	0.26201	0.738619
737	H	0.799719	0.276542	0.766903
738	H	0.828641	0.278013	0.72486
739	H	0.799024	0.237171	0.751405
740	C	0.698595	0.273833	0.016159
741	H	0.671571	0.251217	0.013516
742	H	0.703032	0.291513	0.987907
743	C	0.798035	0.221678	0.656126
744	H	0.825136	0.244066	0.658941
745	H	0.793735	0.202968	0.683044
746	C	0.739055	0.46346	0.011264
747	C	0.732676	0.483729	0.709548
748	C	0.745148	0.020418	0.70339
749	C	0.7644	0.03757	0.66386
750	C	0.770951	0.017179	0.965815
751	H	0.71847	0.471544	0.737606
752	C	0.758468	0.480887	0.972672
753	H	0.785046	0.028424	0.937371
754	H	0.763635	0.467122	0.948983
755	C	0.737581	0.039913	0.738622
756	H	0.723047	0.02309	0.766906
757	H	0.721578	0.050543	0.724867
758	H	0.762421	0.061767	0.751408
759	C	0.725762	0.424678	0.016161
760	H	0.748382	0.420277	0.013525
761	H	0.708088	0.411434	0.987907
762	C	0.777912	0.076273	0.656132
763	H	0.755525	0.080989	0.658948
764	H	0.796623	0.090682	0.68305
765	C	0.536129	0.275514	0.011269
766	C	0.51586	0.248868	0.709555
767	C	0.979171	0.22465	0.703397
768	C	0.96202	0.226752	0.663867
769	C	0.982411	0.253692	0.965818
770	H	0.528047	0.246844	0.737609
771	C	0.518703	0.277498	0.972676
772	H	0.971165	0.256542	0.937374
773	H	0.532469	0.296428	0.948987
774	C	0.959676	0.197588	0.738629
775	H	0.976501	0.199879	0.766913
776	H	0.949048	0.170955	0.72487
777	H	0.937821	0.200572	0.751415
778	C	0.574914	0.300999	0.016162
779	H	0.579319	0.328021	0.01352
780	H	0.588156	0.296564	0.987907
781	C	0.923317	0.20156	0.656139
782	H	0.9186	0.174458	0.658961
783	H	0.908908	0.205865	0.683057
784	C	0.68349	0.81268	0.058559
785	C	0.646041	0.795893	0.058758
786	C	0.628865	0.8161	0.058558
787	C	0.649527	0.853549	0.058757
788	C	0.686912	0.870727	0.058559
789	C	0.703698	0.850065	0.058767
790	H	0.637218	0.868371	0.058741
791	H	0.730828	0.862374	0.058739
792	H	0.631221	0.768764	0.058742
793	N	0.701698	0.793359	0.058174
794	H	0.693363	0.776198	0.084792
795	N	0.706232	0.908253	0.058173
796	H	0.723389	0.917083	0.084795
797	N	0.591337	0.797892	0.058175
798	H	0.58251	0.806226	0.084795
799	C	0.814586	0.685617	0.943808
800	C	0.852106	0.703825	0.943489
801	C	0.870705	0.685007	0.943825
802	C	0.851393	0.647486	0.943512
803	C	0.813973	0.628885	0.943818
804	C	0.795767	0.6482	0.943505
805	H	0.86471	0.633644	0.944258
806	H	0.768604	0.634879	0.944248
807	H	0.865948	0.730986	0.944255
808	N	0.794995	0.703539	0.946211
809	H	0.802574	0.721406	0.920409
810	N	0.796051	0.591375	0.946214
811	H	0.778183	0.581087	0.920413
812	N	0.908217	0.704595	0.946221
813	H	0.918502	0.697011	0.920423
814	C	0.724074	0.760529	0.344601
815	C	0.750727	0.76691	0.042882
816	C	0.774944	0.754442	0.036721
817	C	0.77284	0.735187	0.997191
818	C	0.745899	0.728638	0.299145
819	H	0.752749	0.781121	0.070937
820	C	0.722089	0.741118	0.306005
821	H	0.743049	0.714544	0.2707
822	H	0.703161	0.735957	0.282316
823	C	0.802008	0.76201	0.071953
824	H	0.799717	0.77654	0.100237
825	H	0.82864	0.778014	0.058192
826	H	0.799026	0.737171	0.084738
827	C	0.698593	0.773831	0.349493
828	H	0.67157	0.751217	0.34685
829	H	0.703032	0.791511	0.32124
830	C	0.798034	0.721677	0.98946
831	H	0.825137	0.744065	0.992273
832	H	0.793734	0.702968	0.016379
833	C	0.739055	0.963461	0.344597
834	C	0.732675	0.98373	0.04288
835	C	0.745147	0.520418	0.036723
836	C	0.764401	0.537569	0.997191
837	C	0.770949	0.517178	0.299146
838	H	0.71847	0.971542	0.070938
839	C	0.75847	0.980888	0.306005
840	H	0.785047	0.528423	0.270704
841	H	0.763633	0.96712	0.282317
842	C	0.737581	0.539914	0.071957
843	H	0.723048	0.52309	0.100241
844	H	0.721576	0.550543	0.058198
845	H	0.762419	0.561766	0.084743
846	C	0.725763	0.924679	0.349496
847	H	0.748384	0.920278	0.34686
848	H	0.708088	0.911432	0.32124
849	C	0.77791	0.576272	0.989464
850	H	0.755526	0.580988	0.992283
851	H	0.796624	0.590682	0.016384
852	C	0.536129	0.775512	0.344601
853	C	0.515859	0.748867	0.042889
854	C	0.979172	0.724649	0.03673
855	C	0.962022	0.726753	0.997201
856	C	0.982411	0.75369	0.299152
857	H	0.528048	0.746843	0.070942
858	C	0.518703	0.777499	0.306008
859	H	0.971167	0.756542	0.270709
860	H	0.53247	0.796429	0.28232
861	C	0.959677	0.697587	0.071963
862	H	0.976499	0.699879	0.100248
863	H	0.94905	0.670955	0.058204
864	H	0.937823	0.700572	0.084748
865	C	0.574912	0.800997	0.349496
866	H	0.579317	0.828019	0.346853
867	H	0.588155	0.796562	0.321241
868	C	0.923316	0.70156	0.989474
869	H	0.918599	0.674458	0.992293
870	H	0.908907	0.705865	0.01639
871	C	0.68349	0.81268	0.391892
872	C	0.646041	0.795893	0.392092
873	C	0.628865	0.8161	0.391892
874	C	0.649527	0.853549	0.392092
875	C	0.686912	0.870727	0.391892
876	C	0.703698	0.850065	0.392099
877	H	0.637218	0.868371	0.392075
878	H	0.730828	0.862374	0.392072
879	H	0.631221	0.768764	0.392075
880	N	0.701698	0.793359	0.391505
881	H	0.693363	0.776198	0.418127
882	N	0.706232	0.908253	0.391505
883	H	0.723389	0.917083	0.418127
884	N	0.591337	0.797892	0.391509
885	H	0.58251	0.806226	0.418127
886	C	0.814586	0.685617	0.277143
887	C	0.852106	0.703825	0.276823
888	C	0.870705	0.685007	0.277157
889	C	0.851393	0.647486	0.276846
890	C	0.813973	0.628885	0.277151
891	C	0.795767	0.6482	0.276839
892	H	0.86471	0.633644	0.277593
893	H	0.768604	0.634879	0.277582
894	H	0.865948	0.730986	0.277588
895	N	0.794995	0.703539	0.279543
896	H	0.802574	0.721406	0.253742
897	N	0.796051	0.591375	0.279548
898	H	0.778183	0.581087	0.253748
899	N	0.908217	0.704595	0.279554
900	H	0.918502	0.697011	0.253756
901	C	0.724074	0.760529	0.677935
902	C	0.750727	0.76691	0.376214
903	C	0.774944	0.754442	0.370056
904	C	0.77284	0.735187	0.330524
905	C	0.745899	0.728638	0.63248
906	H	0.752749	0.781121	0.404271
907	C	0.722089	0.741118	0.639338
908	H	0.743049	0.714544	0.604033
909	H	0.703161	0.735957	0.615649
910	C	0.802008	0.76201	0.405288
911	H	0.799717	0.77654	0.433572
912	H	0.82864	0.778014	0.391525
913	H	0.799026	0.737171	0.41807
914	C	0.698593	0.773831	0.682827
915	H	0.67157	0.751217	0.680181
916	H	0.703032	0.791511	0.654573
917	C	0.798034	0.721677	0.322793
918	H	0.825137	0.744065	0.325607
919	H	0.793734	0.702968	0.349712
920	C	0.739055	0.963461	0.677932
921	C	0.732675	0.98373	0.376214
922	C	0.745147	0.520418	0.370056
923	C	0.764401	0.537569	0.330526
924	C	0.770949	0.517178	0.63248
925	H	0.71847	0.971542	0.404271
926	C	0.75847	0.980888	0.639338
927	H	0.785047	0.528423	0.604036
928	H	0.763633	0.96712	0.615652
929	C	0.737581	0.539914	0.405291
930	H	0.723048	0.52309	0.433575
931	H	0.721576	0.550543	0.391532
932	H	0.762419	0.561766	0.418077
933	C	0.725763	0.924679	0.682827
934	H	0.748384	0.920278	0.680191
935	H	0.708088	0.911432	0.654573
936	C	0.77791	0.576272	0.322799
937	H	0.755526	0.580988	0.325615
938	H	0.796624	0.590682	0.349716
939	C	0.536129	0.775512	0.677935
940	C	0.515859	0.748867	0.37622
941	C	0.979172	0.724649	0.370062
942	C	0.962022	0.726753	0.330533
943	C	0.982411	0.75369	0.632487
944	H	0.528048	0.746843	0.404275
945	C	0.518703	0.777499	0.639341
946	H	0.971167	0.756542	0.604043
947	H	0.53247	0.796429	0.615652
948	C	0.959677	0.697587	0.405298
949	H	0.976499	0.699879	0.433582
950	H	0.94905	0.670955	0.391539
951	H	0.937823	0.700572	0.41808
952	C	0.574912	0.800997	0.682827
953	H	0.579317	0.828019	0.680188
954	H	0.588155	0.796562	0.654576
955	C	0.923316	0.70156	0.322807
956	H	0.918599	0.674458	0.325627
957	H	0.908907	0.705865	0.349722
958	C	0.68349	0.81268	0.725226
959	C	0.646041	0.795893	0.725423
960	C	0.628865	0.8161	0.725226
961	C	0.649527	0.853549	0.725423
962	C	0.686912	0.870727	0.725226
963	C	0.703698	0.850065	0.725433
964	H	0.637218	0.868371	0.725406
965	H	0.730828	0.862374	0.725406
966	H	0.631221	0.768764	0.72541
967	N	0.701698	0.793359	0.72484
968	H	0.693363	0.776198	0.751458
969	N	0.706232	0.908253	0.72484
970	H	0.723389	0.917083	0.751461
971	N	0.591337	0.797892	0.72484
972	H	0.58251	0.806226	0.751461
973	C	0.814586	0.685617	0.610477
974	C	0.852106	0.703825	0.610157
975	C	0.870705	0.685007	0.610491
976	C	0.851393	0.647486	0.610177
977	C	0.813973	0.628885	0.610484
978	C	0.795767	0.6482	0.610171
979	H	0.86471	0.633644	0.610927
980	H	0.768604	0.634879	0.610914
981	H	0.865948	0.730986	0.61092
982	N	0.794995	0.703539	0.612877
983	H	0.802574	0.721406	0.587075
984	N	0.796051	0.591375	0.612883
985	H	0.778183	0.581087	0.587082
986	N	0.908217	0.704595	0.612886
987	H	0.918502	0.697011	0.587088
988	C	0.724074	0.760529	0.011268
989	C	0.750727	0.76691	0.709548
990	C	0.774944	0.754442	0.703387
991	C	0.77284	0.735187	0.663857
992	C	0.745899	0.728638	0.965811
993	H	0.752749	0.781121	0.737602
994	C	0.722089	0.741118	0.972672
995	H	0.743049	0.714544	0.937367
996	H	0.703161	0.735957	0.948983
997	C	0.802008	0.76201	0.738619
998	H	0.799717	0.77654	0.766903
999	H	0.82864	0.778014	0.72486
1000	H	0.799026	0.737171	0.751405
1001	C	0.698593	0.773831	0.016159
1002	H	0.67157	0.751217	0.013516
1003	H	0.703032	0.791511	0.987907
1004	C	0.798034	0.721677	0.656126
1005	H	0.825137	0.744065	0.658941
1006	H	0.793734	0.702968	0.683044
1007	C	0.739055	0.963461	0.011264
1008	C	0.732675	0.98373	0.709548
1009	C	0.745147	0.520418	0.70339
1010	C	0.764401	0.537569	0.66386
1011	C	0.770949	0.517178	0.965815
1012	H	0.71847	0.971542	0.737606
1013	C	0.75847	0.980888	0.972672
1014	H	0.785047	0.528423	0.937371
1015	H	0.763633	0.96712	0.948983
1016	C	0.737581	0.539914	0.738622
1017	H	0.723048	0.52309	0.766906
1018	H	0.721576	0.550543	0.724867
1019	H	0.762419	0.561766	0.751408
1020	C	0.725763	0.924679	0.016161
1021	H	0.748384	0.920278	0.013525
1022	H	0.708088	0.911432	0.987907
1023	C	0.77791	0.576272	0.656132
1024	H	0.755526	0.580988	0.658948
1025	H	0.796624	0.590682	0.68305
1026	C	0.536129	0.775512	0.011269
1027	C	0.515859	0.748867	0.709555
1028	C	0.979172	0.724649	0.703397
1029	C	0.962022	0.726753	0.663867
1030	C	0.982411	0.75369	0.965818
1031	H	0.528048	0.746843	0.737609
1032	C	0.518703	0.777499	0.972676
1033	H	0.971167	0.756542	0.937374
1034	H	0.53247	0.796429	0.948987
1035	C	0.959677	0.697587	0.738629
1036	H	0.976499	0.699879	0.766913
1037	H	0.94905	0.670955	0.72487
1038	H	0.937823	0.700572	0.751415
1039	C	0.574912	0.800997	0.016162
1040	H	0.579317	0.828019	0.01352
1041	H	0.588155	0.796562	0.987907
1042	C	0.923316	0.70156	0.656139
1043	H	0.918599	0.674458	0.658961
1044	H	0.908907	0.705865	0.683057
