data_C576H360N96_2018-02-15_10:40:58
#******************************************
#
# CIF file created by Zeo++
# Zeo++ is an open source package to
# analyze microporous materials
#
#*******************************************

_cell_length_a		50.0247   
_cell_length_b		50.0247   
_cell_length_c		29.1012   
_cell_angle_alpha		90   
_cell_angle_beta		90   
_cell_angle_gamma		120   

_symmetry_space_group_name_H-M		'P1'
_symmetry_Int_Tables_number		1
_symmetry_cell_setting		Monoclinic

loop_
_symmetry_equiv_pos_as_xyz
'+x,+y,+z'

loop_
_atom_site_label
_atom_site_type_symbol
_atom_site_fract_x
_atom_site_fract_y
_atom_site_fract_z
1	N	0.189749	0.348891	0.014685
2	C	0.20637	0.332447	0.015693
3	C	0.206207	0.381948	0.015801
4	C	0.156706	0.332302	0.015913
5	C	0.139263	0.321869	0.975061
6	C	0.106655	0.305461	0.976061
7	C	0.08973	0.298938	0.017805
8	C	0.107707	0.309568	0.058604
9	C	0.140319	0.325705	0.057737
10	C	0.223499	0.333269	0.054734
11	C	0.240085	0.317243	0.055681
12	C	0.240402	0.299416	0.017799
13	C	0.223059	0.29895	0.978749
14	C	0.206543	0.315041	0.977632
15	C	0.221644	0.399292	0.976429
16	C	0.237931	0.43192	0.977281
17	C	0.239886	0.448901	0.017565
18	C	0.224185	0.431042	0.056857
19	C	0.20781	0.398445	0.056048
20	H	0.252134	0.319103	0.084943
21	H	0.223997	0.345724	0.082938
22	H	0.194631	0.314083	0.948537
23	H	0.22217	0.2867	0.950056
24	H	0.150346	0.326303	0.94408
25	H	0.095321	0.298608	0.945269
26	H	0.220973	0.3881	0.94664
27	H	0.248764	0.443232	0.947712
28	H	0.22393	0.441508	0.086858
29	H	0.197061	0.386705	0.085344
30	H	0.152179	0.332542	0.088087
31	H	0.097332	0.305224	0.090076
32	N	0.356301	0.181991	0.016231
33	C	0.339847	0.198583	0.015015
34	C	0.33971	0.148933	0.015104
35	C	0.389364	0.198435	0.015235
36	C	0.406943	0.215753	0.053359
37	C	0.43955	0.231844	0.052245
38	C	0.456428	0.231472	0.013135
39	C	0.438286	0.21373	0.975192
40	C	0.405674	0.197703	0.976137
41	C	0.329929	0.205059	0.973213
42	C	0.313457	0.221198	0.972354
43	C	0.30623	0.231943	0.013142
44	C	0.316757	0.225543	0.054863
45	C	0.332964	0.209141	0.055854
46	C	0.324795	0.132432	0.974869
47	C	0.308574	0.099836	0.974058
48	C	0.306431	0.081975	0.013342
49	C	0.321485	0.098959	0.053611
50	C	0.337821	0.131586	0.054466
51	H	0.307327	0.225447	0.940891
52	H	0.334866	0.198144	0.942867
53	H	0.339706	0.204799	0.086825
54	H	0.312381	0.232497	0.085645
55	H	0.395988	0.216639	0.082498
56	H	0.450909	0.244027	0.080984
57	H	0.325776	0.14417	0.945575
58	H	0.297829	0.089372	0.94407
59	H	0.321015	0.087648	0.083175
60	H	0.348358	0.142778	0.084246
61	H	0.393718	0.18531	0.947891
62	H	0.448479	0.211937	0.945887
63	C	0.272974	0.251134	0.308584
64	N	0.258037	0.267504	0.312721
65	C	0.257242	0.28269	0.017913
66	C	0.273644	0.280098	0.055802
67	N	0.288548	0.263696	0.051722
68	C	0.289503	0.248727	0.01308
69	H	0.271349	0.240465	0.278005
70	H	0.274646	0.290035	0.086801
71	C	0.280442	0.029709	0.306633
72	N	0.264817	0.498384	0.310623
73	C	0.256672	0.482385	0.017701
74	C	0.266226	0.501165	0.057607
75	N	0.281929	0.032492	0.053616
76	C	0.289725	0.048491	0.013208
77	H	0.285597	0.038914	0.274388
78	H	0.26223	0.49196	0.089849
79	C	0.508987	0.250956	0.308381
80	N	0.040294	0.267345	0.312472
81	C	0.056218	0.282153	0.017867
82	C	0.03728	0.279579	0.055784
83	N	0.505972	0.263225	0.051637
84	C	0.489994	0.2482	0.013025
85	H	0.500054	0.241158	0.277312
86	H	0.046321	0.290121	0.086439
87	N	0.189749	0.348891	0.348019
88	C	0.20637	0.332447	0.349026
89	C	0.206207	0.381948	0.349133
90	C	0.156706	0.332302	0.349246
91	C	0.139263	0.321869	0.308395
92	C	0.106655	0.305461	0.309393
93	C	0.08973	0.298938	0.35114
94	C	0.107707	0.309568	0.391939
95	C	0.140319	0.325705	0.391073
96	C	0.223499	0.333269	0.388066
97	C	0.240085	0.317243	0.389014
98	C	0.240402	0.299416	0.351133
99	C	0.223059	0.29895	0.312082
100	C	0.206543	0.315041	0.310964
101	C	0.221644	0.399292	0.30976
102	C	0.237931	0.43192	0.310614
103	C	0.239886	0.448901	0.350899
104	C	0.224185	0.431042	0.390193
105	C	0.20781	0.398445	0.389382
106	H	0.252134	0.319103	0.418278
107	H	0.223997	0.345724	0.416271
108	H	0.194631	0.314083	0.281869
109	H	0.22217	0.2867	0.283389
110	H	0.150346	0.326303	0.277412
111	H	0.095321	0.298608	0.278601
112	H	0.220973	0.3881	0.279974
113	H	0.248764	0.443232	0.281045
114	H	0.22393	0.441508	0.420192
115	H	0.197061	0.386705	0.41868
116	H	0.152179	0.332542	0.421422
117	H	0.097332	0.305224	0.423411
118	N	0.356301	0.181991	0.349566
119	C	0.339847	0.198583	0.348349
120	C	0.33971	0.148933	0.348435
121	C	0.389364	0.198435	0.348569
122	C	0.406943	0.215753	0.386691
123	C	0.43955	0.231844	0.385578
124	C	0.456428	0.231472	0.346466
125	C	0.438286	0.21373	0.308525
126	C	0.405674	0.197703	0.30947
127	C	0.329929	0.205059	0.306544
128	C	0.313457	0.221198	0.305685
129	C	0.30623	0.231943	0.346473
130	C	0.316757	0.225543	0.388196
131	C	0.332964	0.209141	0.389186
132	C	0.324795	0.132432	0.308201
133	C	0.308574	0.099836	0.307389
134	C	0.306431	0.081975	0.346672
135	C	0.321485	0.098959	0.386946
136	C	0.337821	0.131586	0.387801
137	H	0.307327	0.225447	0.274223
138	H	0.334866	0.198144	0.276197
139	H	0.339706	0.204799	0.420161
140	H	0.312381	0.232497	0.418979
141	H	0.395988	0.216639	0.415831
142	H	0.450909	0.244027	0.414319
143	H	0.325776	0.14417	0.278906
144	H	0.297829	0.089372	0.277401
145	H	0.321015	0.087648	0.416508
146	H	0.348358	0.142778	0.41758
147	H	0.393718	0.18531	0.281223
148	H	0.448479	0.211937	0.279221
149	C	0.272974	0.251134	0.641918
150	N	0.258037	0.267504	0.646055
151	C	0.257242	0.28269	0.351246
152	C	0.273644	0.280098	0.389135
153	N	0.288548	0.263696	0.385056
154	C	0.289503	0.248727	0.346415
155	H	0.271349	0.240465	0.611338
156	H	0.274646	0.290035	0.420133
157	C	0.280442	0.029709	0.639966
158	N	0.264817	0.498384	0.643959
159	C	0.256672	0.482385	0.351037
160	C	0.266226	0.501165	0.390942
161	N	0.281929	0.032492	0.386949
162	C	0.289725	0.048491	0.346538
163	H	0.285597	0.038914	0.60772
164	H	0.26223	0.49196	0.423185
165	C	0.508987	0.250956	0.641715
166	N	0.040294	0.267345	0.645804
167	C	0.056218	0.282153	0.351201
168	C	0.03728	0.279579	0.389117
169	N	0.505972	0.263225	0.38497
170	C	0.489994	0.2482	0.346356
171	H	0.500054	0.241158	0.610647
172	H	0.046321	0.290121	0.419772
173	N	0.189749	0.348891	0.681352
174	C	0.20637	0.332447	0.682359
175	C	0.206207	0.381948	0.682469
176	C	0.156706	0.332302	0.682583
177	C	0.139263	0.321869	0.641729
178	C	0.106655	0.305461	0.642729
179	C	0.08973	0.298938	0.684472
180	C	0.107707	0.309568	0.725271
181	C	0.140319	0.325705	0.724405
182	C	0.223499	0.333269	0.721402
183	C	0.240085	0.317243	0.722347
184	C	0.240402	0.299416	0.684466
185	C	0.223059	0.29895	0.645416
186	C	0.206543	0.315041	0.644299
187	C	0.221644	0.399292	0.643093
188	C	0.237931	0.43192	0.643948
189	C	0.239886	0.448901	0.684232
190	C	0.224185	0.431042	0.723526
191	C	0.20781	0.398445	0.722715
192	H	0.252134	0.319103	0.75161
193	H	0.223997	0.345724	0.749607
194	H	0.194631	0.314083	0.615204
195	H	0.22217	0.2867	0.616723
196	H	0.150346	0.326303	0.610747
197	H	0.095321	0.298608	0.611936
198	H	0.220973	0.3881	0.613307
199	H	0.248764	0.443232	0.614379
200	H	0.22393	0.441508	0.753524
201	H	0.197061	0.386705	0.752013
202	H	0.152179	0.332542	0.754755
203	H	0.097332	0.305224	0.756744
204	N	0.356301	0.181991	0.682899
205	C	0.339847	0.198583	0.681682
206	C	0.33971	0.148933	0.681772
207	C	0.389364	0.198435	0.681902
208	C	0.406943	0.215753	0.720028
209	C	0.43955	0.231844	0.718914
210	C	0.456428	0.231472	0.679803
211	C	0.438286	0.21373	0.641859
212	C	0.405674	0.197703	0.642804
213	C	0.329929	0.205059	0.639876
214	C	0.313457	0.221198	0.639017
215	C	0.30623	0.231943	0.679806
216	C	0.316757	0.225543	0.721529
217	C	0.332964	0.209141	0.722522
218	C	0.324795	0.132432	0.641533
219	C	0.308574	0.099836	0.640722
220	C	0.306431	0.081975	0.680009
221	C	0.321485	0.098959	0.720278
222	C	0.337821	0.131586	0.721134
223	H	0.307327	0.225447	0.607558
224	H	0.334866	0.198144	0.609531
225	H	0.339706	0.204799	0.753494
226	H	0.312381	0.232497	0.752311
227	H	0.395988	0.216639	0.749167
228	H	0.450909	0.244027	0.747652
229	H	0.325776	0.14417	0.612238
230	H	0.297829	0.089372	0.610733
231	H	0.321015	0.087648	0.749844
232	H	0.348358	0.142778	0.750913
233	H	0.393718	0.18531	0.614558
234	H	0.448479	0.211937	0.612555
235	C	0.272974	0.251134	0.97525
236	N	0.258037	0.267504	0.979388
237	C	0.257242	0.28269	0.684579
238	C	0.273644	0.280098	0.722471
239	N	0.288548	0.263696	0.718389
240	C	0.289503	0.248727	0.679748
241	H	0.271349	0.240465	0.944671
242	H	0.274646	0.290035	0.75347
243	C	0.280442	0.029709	0.973302
244	N	0.264817	0.498384	0.977292
245	C	0.256672	0.482385	0.684369
246	C	0.266226	0.501165	0.724275
247	N	0.281929	0.032492	0.720285
248	C	0.289725	0.048491	0.679871
249	H	0.285597	0.038914	0.941056
250	H	0.26223	0.49196	0.756517
251	C	0.508987	0.250956	0.975048
252	N	0.040294	0.267345	0.97914
253	C	0.056218	0.282153	0.684534
254	C	0.03728	0.279579	0.72245
255	N	0.505972	0.263225	0.718306
256	C	0.489994	0.2482	0.679689
257	H	0.500054	0.241158	0.94398
258	H	0.046321	0.290121	0.753105
259	N	0.18975	0.848891	0.014685
260	C	0.206371	0.832449	0.015693
261	C	0.206207	0.881947	0.015801
262	C	0.156707	0.832304	0.015913
263	C	0.139263	0.821868	0.975061
264	C	0.106656	0.805461	0.976061
265	C	0.089731	0.798938	0.017805
266	C	0.107708	0.80957	0.058604
267	C	0.140319	0.825707	0.057737
268	C	0.223499	0.833269	0.054734
269	C	0.240086	0.817245	0.055681
270	C	0.240401	0.799416	0.017799
271	C	0.223061	0.798952	0.978749
272	C	0.206544	0.81504	0.977632
273	C	0.221647	0.899294	0.976429
274	C	0.237931	0.931919	0.977281
275	C	0.239886	0.948903	0.017565
276	C	0.224185	0.931042	0.056858
277	C	0.207812	0.898447	0.056048
278	H	0.252134	0.819103	0.084943
279	H	0.223997	0.845724	0.082939
280	H	0.194632	0.814085	0.948537
281	H	0.222172	0.786702	0.950056
282	H	0.150348	0.826302	0.94408
283	H	0.095323	0.798608	0.945269
284	H	0.220976	0.888101	0.94664
285	H	0.248765	0.943232	0.947712
286	H	0.223932	0.94151	0.086858
287	H	0.197061	0.886705	0.085344
288	H	0.152179	0.832544	0.088086
289	H	0.097332	0.805225	0.090076
290	N	0.356301	0.681992	0.016231
291	C	0.339848	0.698584	0.015015
292	C	0.33971	0.648933	0.015104
293	C	0.389365	0.698436	0.015235
294	C	0.406944	0.715755	0.053358
295	C	0.439551	0.731846	0.052244
296	C	0.456427	0.731472	0.013135
297	C	0.438287	0.713731	0.975192
298	C	0.405675	0.697702	0.976137
299	C	0.32993	0.705058	0.973213
300	C	0.313458	0.7212	0.97235
301	C	0.306229	0.731943	0.013139
302	C	0.316757	0.725542	0.054863
303	C	0.332965	0.709142	0.055854
304	C	0.324795	0.632434	0.974869
305	C	0.308575	0.599836	0.974058
306	C	0.30643	0.581975	0.013342
307	C	0.321485	0.598959	0.053611
308	C	0.337821	0.631586	0.054466
309	H	0.307328	0.725447	0.940891
310	H	0.334868	0.698145	0.942863
311	H	0.339706	0.704798	0.086825
312	H	0.31238	0.732497	0.085644
313	H	0.395989	0.716641	0.082497
314	H	0.45091	0.744029	0.080983
315	H	0.325777	0.644171	0.945575
316	H	0.29783	0.589373	0.94407
317	H	0.321015	0.587649	0.083175
318	H	0.348358	0.642779	0.084246
319	H	0.393719	0.685309	0.947891
320	H	0.448479	0.711935	0.945887
321	C	0.272976	0.751136	0.308583
322	N	0.258038	0.767506	0.312721
323	C	0.257243	0.782692	0.017912
324	C	0.273643	0.780098	0.055802
325	N	0.288548	0.763695	0.051723
326	C	0.289503	0.748726	0.01308
327	H	0.271351	0.740467	0.278003
328	H	0.274644	0.790032	0.086802
329	C	0.280441	0.529709	0.306633
330	N	0.264818	0.998383	0.310623
331	C	0.256671	0.982385	0.017702
332	C	0.266228	0.001167	0.057607
333	N	0.28193	0.532493	0.053616
334	C	0.289725	0.548491	0.013208
335	H	0.285599	0.538914	0.274387
336	H	0.262232	0.991959	0.089849
337	C	0.508988	0.750956	0.308381
338	N	0.040295	0.767345	0.312472
339	C	0.056219	0.782154	0.017866
340	C	0.037282	0.779583	0.055783
341	N	0.505973	0.763227	0.051636
342	C	0.489993	0.7482	0.013025
343	H	0.500053	0.741155	0.277313
344	H	0.04632	0.790123	0.086438
345	N	0.18975	0.848891	0.348019
346	C	0.206371	0.832449	0.349026
347	C	0.206207	0.881947	0.349136
348	C	0.156707	0.832304	0.349246
349	C	0.139263	0.821868	0.308395
350	C	0.106656	0.805461	0.309393
351	C	0.089731	0.798938	0.35114
352	C	0.107708	0.80957	0.391939
353	C	0.140319	0.825707	0.391073
354	C	0.223499	0.833269	0.388069
355	C	0.240086	0.817245	0.389014
356	C	0.240401	0.799416	0.351133
357	C	0.223061	0.798952	0.312081
358	C	0.206544	0.81504	0.310964
359	C	0.221647	0.899294	0.30976
360	C	0.237931	0.931919	0.310614
361	C	0.239886	0.948903	0.350899
362	C	0.224185	0.931042	0.390193
363	C	0.207812	0.898447	0.389382
364	H	0.252134	0.819103	0.418278
365	H	0.223997	0.845724	0.416271
366	H	0.194632	0.814085	0.281868
367	H	0.222172	0.786702	0.283388
368	H	0.150348	0.826302	0.277412
369	H	0.095323	0.798608	0.278601
370	H	0.220976	0.888101	0.279974
371	H	0.248765	0.943232	0.281045
372	H	0.223932	0.94151	0.420192
373	H	0.197061	0.886705	0.41868
374	H	0.152179	0.832544	0.421418
375	H	0.097332	0.805225	0.423408
376	N	0.356301	0.681992	0.349566
377	C	0.339848	0.698584	0.348349
378	C	0.33971	0.648933	0.348435
379	C	0.389365	0.698436	0.348569
380	C	0.406944	0.715755	0.386691
381	C	0.439551	0.731846	0.385578
382	C	0.456427	0.731472	0.346466
383	C	0.438287	0.713731	0.308526
384	C	0.405675	0.697702	0.309471
385	C	0.32993	0.705058	0.306544
386	C	0.313458	0.7212	0.305684
387	C	0.306229	0.731943	0.346473
388	C	0.316757	0.725542	0.388196
389	C	0.332965	0.709142	0.389186
390	C	0.324795	0.632434	0.3082
391	C	0.308575	0.599836	0.307389
392	C	0.30643	0.581975	0.346672
393	C	0.321485	0.598959	0.386946
394	C	0.337821	0.631586	0.387801
395	H	0.307328	0.725447	0.274223
396	H	0.334868	0.698145	0.276197
397	H	0.339706	0.704798	0.420161
398	H	0.31238	0.732497	0.418979
399	H	0.395989	0.716641	0.415831
400	H	0.45091	0.744029	0.414316
401	H	0.325777	0.644171	0.278906
402	H	0.29783	0.589373	0.277401
403	H	0.321015	0.587649	0.416508
404	H	0.348358	0.642779	0.41758
405	H	0.393719	0.685309	0.281223
406	H	0.448479	0.711935	0.279221
407	C	0.272976	0.751136	0.641918
408	N	0.258038	0.767506	0.646055
409	C	0.257243	0.782692	0.351246
410	C	0.273643	0.780098	0.389135
411	N	0.288548	0.763695	0.385056
412	C	0.289503	0.748726	0.346411
413	H	0.271351	0.740467	0.611338
414	H	0.274644	0.790032	0.420137
415	C	0.280441	0.529709	0.639966
416	N	0.264818	0.998383	0.643959
417	C	0.256671	0.982385	0.351037
418	C	0.266228	0.001167	0.390942
419	N	0.28193	0.532493	0.386949
420	C	0.289725	0.548491	0.346538
421	H	0.285599	0.538914	0.60772
422	H	0.262232	0.991959	0.423185
423	C	0.508988	0.750956	0.641715
424	N	0.040295	0.767345	0.645807
425	C	0.056219	0.782154	0.351201
426	C	0.037282	0.779583	0.389117
427	N	0.505973	0.763227	0.38497
428	C	0.489993	0.7482	0.346356
429	H	0.500053	0.741155	0.610647
430	H	0.04632	0.790123	0.419772
431	N	0.18975	0.848891	0.681352
432	C	0.206371	0.832449	0.682359
433	C	0.206207	0.881947	0.682469
434	C	0.156707	0.832304	0.682579
435	C	0.139263	0.821868	0.641729
436	C	0.106656	0.805461	0.642729
437	C	0.089731	0.798938	0.684472
438	C	0.107708	0.80957	0.725271
439	C	0.140319	0.825707	0.724405
440	C	0.223499	0.833269	0.721402
441	C	0.240086	0.817245	0.722347
442	C	0.240401	0.799416	0.684466
443	C	0.223061	0.798952	0.645416
444	C	0.206544	0.81504	0.644299
445	C	0.221647	0.899294	0.643093
446	C	0.237931	0.931919	0.643948
447	C	0.239886	0.948903	0.684232
448	C	0.224185	0.931042	0.723526
449	C	0.207812	0.898447	0.722715
450	H	0.252134	0.819103	0.75161
451	H	0.223997	0.845724	0.749607
452	H	0.194632	0.814085	0.615201
453	H	0.222172	0.786702	0.616723
454	H	0.150348	0.826302	0.610747
455	H	0.095323	0.798608	0.611936
456	H	0.220976	0.888101	0.613307
457	H	0.248765	0.943232	0.614379
458	H	0.223932	0.94151	0.753524
459	H	0.197061	0.886705	0.752013
460	H	0.152179	0.832544	0.754755
461	H	0.097332	0.805225	0.756744
462	N	0.356301	0.681992	0.682899
463	C	0.339848	0.698584	0.681682
464	C	0.33971	0.648933	0.681772
465	C	0.389365	0.698436	0.681902
466	C	0.406944	0.715755	0.720024
467	C	0.439551	0.731846	0.718911
468	C	0.456427	0.731472	0.679799
469	C	0.438287	0.713731	0.641859
470	C	0.405675	0.697702	0.642804
471	C	0.32993	0.705058	0.639876
472	C	0.313458	0.7212	0.639017
473	C	0.306229	0.731943	0.679806
474	C	0.316757	0.725542	0.721529
475	C	0.332965	0.709142	0.722522
476	C	0.324795	0.632434	0.641533
477	C	0.308575	0.599836	0.640722
478	C	0.30643	0.581975	0.680009
479	C	0.321485	0.598959	0.720278
480	C	0.337821	0.631586	0.721134
481	H	0.307328	0.725447	0.607558
482	H	0.334868	0.698145	0.609531
483	H	0.339706	0.704798	0.753494
484	H	0.31238	0.732497	0.752311
485	H	0.395989	0.716641	0.749164
486	H	0.45091	0.744029	0.747652
487	H	0.325777	0.644171	0.612238
488	H	0.29783	0.589373	0.610733
489	H	0.321015	0.587649	0.749844
490	H	0.348358	0.642779	0.750913
491	H	0.393719	0.685309	0.614558
492	H	0.448479	0.711935	0.612555
493	C	0.272976	0.751136	0.97525
494	N	0.258038	0.767506	0.979388
495	C	0.257243	0.782692	0.684579
496	C	0.273643	0.780098	0.722471
497	N	0.288548	0.763695	0.718389
498	C	0.289503	0.748726	0.679748
499	H	0.271351	0.740467	0.944671
500	H	0.274644	0.790032	0.75347
501	C	0.280441	0.529709	0.973302
502	N	0.264818	0.998383	0.977292
503	C	0.256671	0.982385	0.684369
504	C	0.266228	0.001167	0.724275
505	N	0.28193	0.532493	0.720285
506	C	0.289725	0.548491	0.679871
507	H	0.285599	0.538914	0.941056
508	H	0.262232	0.991959	0.756517
509	C	0.508988	0.750956	0.975048
510	N	0.040295	0.767345	0.97914
511	C	0.056219	0.782154	0.684534
512	C	0.037282	0.779583	0.72245
513	N	0.505973	0.763227	0.718303
514	C	0.489993	0.7482	0.679689
515	H	0.500053	0.741155	0.94398
516	H	0.04632	0.790123	0.753105
517	N	0.689749	0.348891	0.014685
518	C	0.706369	0.332447	0.015693
519	C	0.706208	0.381948	0.015801
520	C	0.656707	0.332302	0.015913
521	C	0.639264	0.321869	0.975061
522	C	0.606655	0.305461	0.976061
523	C	0.58973	0.298938	0.017805
524	C	0.607706	0.309568	0.058604
525	C	0.640319	0.325705	0.057737
526	C	0.7235	0.333269	0.054734
527	C	0.740084	0.317243	0.055681
528	C	0.740403	0.299416	0.017799
529	C	0.72306	0.29895	0.978749
530	C	0.706543	0.315041	0.977632
531	C	0.721645	0.399292	0.976429
532	C	0.73793	0.43192	0.977281
533	C	0.739887	0.448901	0.017565
534	C	0.724184	0.431042	0.056857
535	C	0.70781	0.398445	0.056048
536	H	0.752135	0.319103	0.084943
537	H	0.723998	0.345724	0.082938
538	H	0.69463	0.314083	0.948537
539	H	0.72217	0.2867	0.950056
540	H	0.650347	0.326303	0.94408
541	H	0.595322	0.298608	0.945269
542	H	0.720974	0.3881	0.94664
543	H	0.748764	0.443232	0.947712
544	H	0.72393	0.441508	0.086858
545	H	0.697062	0.386705	0.085344
546	H	0.652179	0.332542	0.088087
547	H	0.597332	0.305224	0.090076
548	N	0.856302	0.181991	0.016231
549	C	0.839848	0.198583	0.015015
550	C	0.839711	0.148933	0.015104
551	C	0.889365	0.198435	0.015235
552	C	0.906944	0.215753	0.053359
553	C	0.939549	0.231844	0.052245
554	C	0.956427	0.231472	0.013135
555	C	0.938287	0.21373	0.975192
556	C	0.905675	0.197703	0.976137
557	C	0.82993	0.205059	0.973213
558	C	0.813456	0.221198	0.972354
559	C	0.806229	0.231943	0.013142
560	C	0.816758	0.225543	0.054863
561	C	0.832965	0.209141	0.055854
562	C	0.824794	0.132432	0.974869
563	C	0.808575	0.099836	0.974058
564	C	0.80643	0.081975	0.013342
565	C	0.821484	0.098959	0.053611
566	C	0.837822	0.131586	0.054466
567	H	0.807327	0.225447	0.940891
568	H	0.834867	0.198144	0.942867
569	H	0.839707	0.204799	0.086825
570	H	0.812381	0.232497	0.085645
571	H	0.895989	0.216639	0.082498
572	H	0.95091	0.244027	0.080984
573	H	0.825777	0.14417	0.945575
574	H	0.797828	0.089372	0.94407
575	H	0.821016	0.087648	0.083175
576	H	0.848357	0.142778	0.084246
577	H	0.893717	0.18531	0.947891
578	H	0.948478	0.211937	0.945887
579	C	0.772974	0.251134	0.308584
580	N	0.758036	0.267504	0.312721
581	C	0.757241	0.28269	0.017913
582	C	0.773644	0.280098	0.055802
583	N	0.788548	0.263696	0.051722
584	C	0.789503	0.248727	0.01308
585	H	0.771349	0.240465	0.278005
586	H	0.774647	0.290035	0.086801
587	C	0.780441	0.029709	0.306633
588	N	0.764818	0.498384	0.310623
589	C	0.756672	0.482385	0.017701
590	C	0.766226	0.501165	0.057607
591	N	0.78193	0.032492	0.053616
592	C	0.789726	0.048491	0.013208
593	H	0.785598	0.038914	0.274388
594	H	0.762231	0.49196	0.089849
595	C	0.008988	0.250956	0.308381
596	N	0.540294	0.267345	0.312472
597	C	0.55622	0.282153	0.017867
598	C	0.537279	0.279579	0.055784
599	N	0.005973	0.263225	0.051637
600	C	0.989993	0.2482	0.013025
601	H	5.3e-05	0.241158	0.277312
602	H	0.54632	0.290121	0.086439
603	N	0.689749	0.348891	0.348019
604	C	0.706369	0.332447	0.349026
605	C	0.706208	0.381948	0.349133
606	C	0.656707	0.332302	0.349246
607	C	0.639264	0.321869	0.308395
608	C	0.606655	0.305461	0.309393
609	C	0.58973	0.298938	0.35114
610	C	0.607706	0.309568	0.391939
611	C	0.640319	0.325705	0.391073
612	C	0.7235	0.333269	0.388066
613	C	0.740084	0.317243	0.389014
614	C	0.740403	0.299416	0.351133
615	C	0.72306	0.29895	0.312082
616	C	0.706543	0.315041	0.310964
617	C	0.721645	0.399292	0.30976
618	C	0.73793	0.43192	0.310614
619	C	0.739887	0.448901	0.350899
620	C	0.724184	0.431042	0.390193
621	C	0.70781	0.398445	0.389382
622	H	0.752135	0.319103	0.418278
623	H	0.723998	0.345724	0.416271
624	H	0.69463	0.314083	0.281869
625	H	0.72217	0.2867	0.283389
626	H	0.650347	0.326303	0.277412
627	H	0.595322	0.298608	0.278601
628	H	0.720974	0.3881	0.279974
629	H	0.748764	0.443232	0.281045
630	H	0.72393	0.441508	0.420192
631	H	0.697062	0.386705	0.41868
632	H	0.652179	0.332542	0.421422
633	H	0.597332	0.305224	0.423411
634	N	0.856302	0.181991	0.349566
635	C	0.839848	0.198583	0.348349
636	C	0.839711	0.148933	0.348435
637	C	0.889365	0.198435	0.348569
638	C	0.906944	0.215753	0.386691
639	C	0.939549	0.231844	0.385578
640	C	0.956427	0.231472	0.346466
641	C	0.938287	0.21373	0.308525
642	C	0.905675	0.197703	0.30947
643	C	0.82993	0.205059	0.306544
644	C	0.813456	0.221198	0.305685
645	C	0.806229	0.231943	0.346473
646	C	0.816758	0.225543	0.388196
647	C	0.832965	0.209141	0.389186
648	C	0.824794	0.132432	0.308201
649	C	0.808575	0.099836	0.307389
650	C	0.80643	0.081975	0.346672
651	C	0.821484	0.098959	0.386946
652	C	0.837822	0.131586	0.387801
653	H	0.807327	0.225447	0.274223
654	H	0.834867	0.198144	0.276197
655	H	0.839707	0.204799	0.420161
656	H	0.812381	0.232497	0.418979
657	H	0.895989	0.216639	0.415831
658	H	0.95091	0.244027	0.414319
659	H	0.825777	0.14417	0.278906
660	H	0.797828	0.089372	0.277401
661	H	0.821016	0.087648	0.416508
662	H	0.848357	0.142778	0.41758
663	H	0.893717	0.18531	0.281223
664	H	0.948478	0.211937	0.279221
665	C	0.772974	0.251134	0.641918
666	N	0.758036	0.267504	0.646055
667	C	0.757241	0.28269	0.351246
668	C	0.773644	0.280098	0.389135
669	N	0.788548	0.263696	0.385056
670	C	0.789503	0.248727	0.346415
671	H	0.771349	0.240465	0.611338
672	H	0.774647	0.290035	0.420133
673	C	0.780441	0.029709	0.639966
674	N	0.764818	0.498384	0.643959
675	C	0.756672	0.482385	0.351037
676	C	0.766226	0.501165	0.390942
677	N	0.78193	0.032492	0.386949
678	C	0.789726	0.048491	0.346538
679	H	0.785598	0.038914	0.60772
680	H	0.762231	0.49196	0.423185
681	C	0.008988	0.250956	0.641715
682	N	0.540294	0.267345	0.645804
683	C	0.55622	0.282153	0.351201
684	C	0.537279	0.279579	0.389117
685	N	0.005973	0.263225	0.38497
686	C	0.989993	0.2482	0.346356
687	H	5.3e-05	0.241158	0.610647
688	H	0.54632	0.290121	0.419772
689	N	0.689749	0.348891	0.681352
690	C	0.706369	0.332447	0.682359
691	C	0.706208	0.381948	0.682469
692	C	0.656707	0.332302	0.682583
693	C	0.639264	0.321869	0.641729
694	C	0.606655	0.305461	0.642729
695	C	0.58973	0.298938	0.684472
696	C	0.607706	0.309568	0.725271
697	C	0.640319	0.325705	0.724405
698	C	0.7235	0.333269	0.721402
699	C	0.740084	0.317243	0.722347
700	C	0.740403	0.299416	0.684466
701	C	0.72306	0.29895	0.645416
702	C	0.706543	0.315041	0.644299
703	C	0.721645	0.399292	0.643093
704	C	0.73793	0.43192	0.643948
705	C	0.739887	0.448901	0.684232
706	C	0.724184	0.431042	0.723526
707	C	0.70781	0.398445	0.722715
708	H	0.752135	0.319103	0.75161
709	H	0.723998	0.345724	0.749607
710	H	0.69463	0.314083	0.615204
711	H	0.72217	0.2867	0.616723
712	H	0.650347	0.326303	0.610747
713	H	0.595322	0.298608	0.611936
714	H	0.720974	0.3881	0.613307
715	H	0.748764	0.443232	0.614379
716	H	0.72393	0.441508	0.753524
717	H	0.697062	0.386705	0.752013
718	H	0.652179	0.332542	0.754755
719	H	0.597332	0.305224	0.756744
720	N	0.856302	0.181991	0.682899
721	C	0.839848	0.198583	0.681682
722	C	0.839711	0.148933	0.681772
723	C	0.889365	0.198435	0.681902
724	C	0.906944	0.215753	0.720028
725	C	0.939549	0.231844	0.718914
726	C	0.956427	0.231472	0.679803
727	C	0.938287	0.21373	0.641859
728	C	0.905675	0.197703	0.642804
729	C	0.82993	0.205059	0.639876
730	C	0.813456	0.221198	0.639017
731	C	0.806229	0.231943	0.679806
732	C	0.816758	0.225543	0.721529
733	C	0.832965	0.209141	0.722522
734	C	0.824794	0.132432	0.641533
735	C	0.808575	0.099836	0.640722
736	C	0.80643	0.081975	0.680009
737	C	0.821484	0.098959	0.720278
738	C	0.837822	0.131586	0.721134
739	H	0.807327	0.225447	0.607558
740	H	0.834867	0.198144	0.609531
741	H	0.839707	0.204799	0.753494
742	H	0.812381	0.232497	0.752311
743	H	0.895989	0.216639	0.749167
744	H	0.95091	0.244027	0.747652
745	H	0.825777	0.14417	0.612238
746	H	0.797828	0.089372	0.610733
747	H	0.821016	0.087648	0.749844
748	H	0.848357	0.142778	0.750913
749	H	0.893717	0.18531	0.614558
750	H	0.948478	0.211937	0.612555
751	C	0.772974	0.251134	0.97525
752	N	0.758036	0.267504	0.979388
753	C	0.757241	0.28269	0.684579
754	C	0.773644	0.280098	0.722471
755	N	0.788548	0.263696	0.718389
756	C	0.789503	0.248727	0.679748
757	H	0.771349	0.240465	0.944671
758	H	0.774647	0.290035	0.75347
759	C	0.780441	0.029709	0.973302
760	N	0.764818	0.498384	0.977292
761	C	0.756672	0.482385	0.684369
762	C	0.766226	0.501165	0.724275
763	N	0.78193	0.032492	0.720285
764	C	0.789726	0.048491	0.679871
765	H	0.785598	0.038914	0.941056
766	H	0.762231	0.49196	0.756517
767	C	0.008988	0.250956	0.975048
768	N	0.540294	0.267345	0.97914
769	C	0.55622	0.282153	0.684534
770	C	0.537279	0.279579	0.72245
771	N	0.005973	0.263225	0.718306
772	C	0.989993	0.2482	0.679689
773	H	5.3e-05	0.241158	0.94398
774	H	0.54632	0.290121	0.753105
775	N	0.689749	0.848891	0.014685
776	C	0.70637	0.832449	0.015693
777	C	0.706208	0.881947	0.015801
778	C	0.656708	0.832304	0.015913
779	C	0.639264	0.821868	0.975061
780	C	0.606655	0.805461	0.976061
781	C	0.58973	0.798938	0.017805
782	C	0.607707	0.80957	0.058604
783	C	0.64032	0.825707	0.057737
784	C	0.7235	0.833269	0.054734
785	C	0.740085	0.817245	0.055681
786	C	0.740402	0.799416	0.017799
787	C	0.723061	0.798952	0.978749
788	C	0.706543	0.81504	0.977632
789	C	0.721646	0.899294	0.976429
790	C	0.737932	0.931919	0.977281
791	C	0.739887	0.948903	0.017565
792	C	0.724186	0.931042	0.056858
793	C	0.707813	0.898447	0.056048
794	H	0.752135	0.819103	0.084943
795	H	0.723998	0.845724	0.082939
796	H	0.694633	0.814085	0.948537
797	H	0.722171	0.786702	0.950056
798	H	0.650347	0.826302	0.94408
799	H	0.595323	0.798608	0.945269
800	H	0.720975	0.888101	0.94664
801	H	0.748766	0.943232	0.947712
802	H	0.723931	0.94151	0.086858
803	H	0.697062	0.886705	0.085344
804	H	0.65218	0.832544	0.088086
805	H	0.597333	0.805225	0.090076
806	N	0.856302	0.681992	0.016231
807	C	0.839848	0.698584	0.015015
808	C	0.839711	0.648933	0.015104
809	C	0.889366	0.698436	0.015235
810	C	0.906945	0.715755	0.053358
811	C	0.93955	0.731846	0.052244
812	C	0.956427	0.731472	0.013135
813	C	0.938287	0.713731	0.975192
814	C	0.905675	0.697702	0.976137
815	C	0.82993	0.705058	0.973213
816	C	0.813459	0.7212	0.97235
817	C	0.806231	0.731943	0.013139
818	C	0.816757	0.725542	0.054863
819	C	0.832965	0.709142	0.055854
820	C	0.824796	0.632434	0.974869
821	C	0.808576	0.599836	0.974058
822	C	0.806429	0.581975	0.013342
823	C	0.821484	0.598959	0.053611
824	C	0.837822	0.631586	0.054466
825	H	0.807329	0.725447	0.940891
826	H	0.834869	0.698145	0.942863
827	H	0.839707	0.704798	0.086825
828	H	0.812381	0.732497	0.085644
829	H	0.89599	0.716641	0.082497
830	H	0.950909	0.744029	0.080983
831	H	0.825777	0.644171	0.945575
832	H	0.797831	0.589373	0.94407
833	H	0.821015	0.587649	0.083175
834	H	0.848358	0.642779	0.084246
835	H	0.893719	0.685309	0.947891
836	H	0.948479	0.711935	0.945887
837	C	0.772976	0.751136	0.308583
838	N	0.758039	0.767506	0.312721
839	C	0.757242	0.782692	0.017912
840	C	0.773644	0.780098	0.055802
841	N	0.788547	0.763695	0.051723
842	C	0.789503	0.748726	0.01308
843	H	0.771352	0.740467	0.278003
844	H	0.774643	0.790032	0.086802
845	C	0.780442	0.529709	0.306633
846	N	0.764817	0.998383	0.310623
847	C	0.756672	0.982385	0.017702
848	C	0.766229	0.001167	0.057607
849	N	0.78193	0.532493	0.053616
850	C	0.789726	0.548491	0.013208
851	H	0.785599	0.538914	0.274387
852	H	0.762231	0.991959	0.089849
853	C	0.008988	0.750956	0.308381
854	N	0.540295	0.767345	0.312472
855	C	0.55622	0.782154	0.017866
856	C	0.537282	0.779583	0.055783
857	N	0.005974	0.763227	0.051636
858	C	0.989992	0.7482	0.013025
859	H	5.3e-05	0.741155	0.277313
860	H	0.546321	0.790123	0.086438
861	N	0.689749	0.848891	0.348019
862	C	0.70637	0.832449	0.349026
863	C	0.706208	0.881947	0.349136
864	C	0.656708	0.832304	0.349246
865	C	0.639264	0.821868	0.308395
866	C	0.606655	0.805461	0.309393
867	C	0.58973	0.798938	0.35114
868	C	0.607707	0.80957	0.391939
869	C	0.64032	0.825707	0.391073
870	C	0.7235	0.833269	0.388069
871	C	0.740085	0.817245	0.389014
872	C	0.740402	0.799416	0.351133
873	C	0.723061	0.798952	0.312081
874	C	0.706543	0.81504	0.310964
875	C	0.721646	0.899294	0.30976
876	C	0.737932	0.931919	0.310614
877	C	0.739887	0.948903	0.350899
878	C	0.724186	0.931042	0.390193
879	C	0.707813	0.898447	0.389382
880	H	0.752135	0.819103	0.418278
881	H	0.723998	0.845724	0.416271
882	H	0.694633	0.814085	0.281868
883	H	0.722171	0.786702	0.283388
884	H	0.650347	0.826302	0.277412
885	H	0.595323	0.798608	0.278601
886	H	0.720975	0.888101	0.279974
887	H	0.748766	0.943232	0.281045
888	H	0.723931	0.94151	0.420192
889	H	0.697062	0.886705	0.41868
890	H	0.65218	0.832544	0.421418
891	H	0.597333	0.805225	0.423408
892	N	0.856302	0.681992	0.349566
893	C	0.839848	0.698584	0.348349
894	C	0.839711	0.648933	0.348435
895	C	0.889366	0.698436	0.348569
896	C	0.906945	0.715755	0.386691
897	C	0.93955	0.731846	0.385578
898	C	0.956427	0.731472	0.346466
899	C	0.938287	0.713731	0.308526
900	C	0.905675	0.697702	0.309471
901	C	0.82993	0.705058	0.306544
902	C	0.813459	0.7212	0.305684
903	C	0.806231	0.731943	0.346473
904	C	0.816757	0.725542	0.388196
905	C	0.832965	0.709142	0.389186
906	C	0.824796	0.632434	0.3082
907	C	0.808576	0.599836	0.307389
908	C	0.806429	0.581975	0.346672
909	C	0.821484	0.598959	0.386946
910	C	0.837822	0.631586	0.387801
911	H	0.807329	0.725447	0.274223
912	H	0.834869	0.698145	0.276197
913	H	0.839707	0.704798	0.420161
914	H	0.812381	0.732497	0.418979
915	H	0.89599	0.716641	0.415831
916	H	0.950909	0.744029	0.414316
917	H	0.825777	0.644171	0.278906
918	H	0.797831	0.589373	0.277401
919	H	0.821015	0.587649	0.416508
920	H	0.848358	0.642779	0.41758
921	H	0.893719	0.685309	0.281223
922	H	0.948479	0.711935	0.279221
923	C	0.772976	0.751136	0.641918
924	N	0.758039	0.767506	0.646055
925	C	0.757242	0.782692	0.351246
926	C	0.773644	0.780098	0.389135
927	N	0.788547	0.763695	0.385056
928	C	0.789503	0.748726	0.346411
929	H	0.771352	0.740467	0.611338
930	H	0.774643	0.790032	0.420137
931	C	0.780442	0.529709	0.639966
932	N	0.764817	0.998383	0.643959
933	C	0.756672	0.982385	0.351037
934	C	0.766229	0.001167	0.390942
935	N	0.78193	0.532493	0.386949
936	C	0.789726	0.548491	0.346538
937	H	0.785599	0.538914	0.60772
938	H	0.762231	0.991959	0.423185
939	C	0.008988	0.750956	0.641715
940	N	0.540295	0.767345	0.645807
941	C	0.55622	0.782154	0.351201
942	C	0.537282	0.779583	0.389117
943	N	0.005974	0.763227	0.38497
944	C	0.989992	0.7482	0.346356
945	H	5.3e-05	0.741155	0.610647
946	H	0.546321	0.790123	0.419772
947	N	0.689749	0.848891	0.681352
948	C	0.70637	0.832449	0.682359
949	C	0.706208	0.881947	0.682469
950	C	0.656708	0.832304	0.682579
951	C	0.639264	0.821868	0.641729
952	C	0.606655	0.805461	0.642729
953	C	0.58973	0.798938	0.684472
954	C	0.607707	0.80957	0.725271
955	C	0.64032	0.825707	0.724405
956	C	0.7235	0.833269	0.721402
957	C	0.740085	0.817245	0.722347
958	C	0.740402	0.799416	0.684466
959	C	0.723061	0.798952	0.645416
960	C	0.706543	0.81504	0.644299
961	C	0.721646	0.899294	0.643093
962	C	0.737932	0.931919	0.643948
963	C	0.739887	0.948903	0.684232
964	C	0.724186	0.931042	0.723526
965	C	0.707813	0.898447	0.722715
966	H	0.752135	0.819103	0.75161
967	H	0.723998	0.845724	0.749607
968	H	0.694633	0.814085	0.615201
969	H	0.722171	0.786702	0.616723
970	H	0.650347	0.826302	0.610747
971	H	0.595323	0.798608	0.611936
972	H	0.720975	0.888101	0.613307
973	H	0.748766	0.943232	0.614379
974	H	0.723931	0.94151	0.753524
975	H	0.697062	0.886705	0.752013
976	H	0.65218	0.832544	0.754755
977	H	0.597333	0.805225	0.756744
978	N	0.856302	0.681992	0.682899
979	C	0.839848	0.698584	0.681682
980	C	0.839711	0.648933	0.681772
981	C	0.889366	0.698436	0.681902
982	C	0.906945	0.715755	0.720024
983	C	0.93955	0.731846	0.718911
984	C	0.956427	0.731472	0.679799
985	C	0.938287	0.713731	0.641859
986	C	0.905675	0.697702	0.642804
987	C	0.82993	0.705058	0.639876
988	C	0.813459	0.7212	0.639017
989	C	0.806231	0.731943	0.679806
990	C	0.816757	0.725542	0.721529
991	C	0.832965	0.709142	0.722522
992	C	0.824796	0.632434	0.641533
993	C	0.808576	0.599836	0.640722
994	C	0.806429	0.581975	0.680009
995	C	0.821484	0.598959	0.720278
996	C	0.837822	0.631586	0.721134
997	H	0.807329	0.725447	0.607558
998	H	0.834869	0.698145	0.609531
999	H	0.839707	0.704798	0.753494
1000	H	0.812381	0.732497	0.752311
1001	H	0.89599	0.716641	0.749164
1002	H	0.950909	0.744029	0.747652
1003	H	0.825777	0.644171	0.612238
1004	H	0.797831	0.589373	0.610733
1005	H	0.821015	0.587649	0.749844
1006	H	0.848358	0.642779	0.750913
1007	H	0.893719	0.685309	0.614558
1008	H	0.948479	0.711935	0.612555
1009	C	0.772976	0.751136	0.97525
1010	N	0.758039	0.767506	0.979388
1011	C	0.757242	0.782692	0.684579
1012	C	0.773644	0.780098	0.722471
1013	N	0.788547	0.763695	0.718389
1014	C	0.789503	0.748726	0.679748
1015	H	0.771352	0.740467	0.944671
1016	H	0.774643	0.790032	0.75347
1017	C	0.780442	0.529709	0.973302
1018	N	0.764817	0.998383	0.977292
1019	C	0.756672	0.982385	0.684369
1020	C	0.766229	0.001167	0.724275
1021	N	0.78193	0.532493	0.720285
1022	C	0.789726	0.548491	0.679871
1023	H	0.785599	0.538914	0.941056
1024	H	0.762231	0.991959	0.756517
1025	C	0.008988	0.750956	0.975048
1026	N	0.540295	0.767345	0.97914
1027	C	0.55622	0.782154	0.684534
1028	C	0.537282	0.779583	0.72245
1029	N	0.005974	0.763227	0.718303
1030	C	0.989992	0.7482	0.679689
1031	H	5.3e-05	0.741155	0.94398
1032	H	0.546321	0.790123	0.753105
