data_C504H432N72O72_2018-02-15_10:32:45
#******************************************
#
# CIF file created by Zeo++
# Zeo++ is an open source package to
# analyze microporous materials
#
#*******************************************

_cell_length_a		43.9508   
_cell_length_b		43.9508   
_cell_length_c		30.0704   
_cell_angle_alpha		90   
_cell_angle_beta		90   
_cell_angle_gamma		120   

_symmetry_space_group_name_H-M		'P1'
_symmetry_Int_Tables_number		1
_symmetry_cell_setting		Monoclinic

loop_
_symmetry_equiv_pos_as_xyz
'+x,+y,+z'

loop_
_atom_site_label
_atom_site_type_symbol
_atom_site_fract_x
_atom_site_fract_y
_atom_site_fract_z
1	C	0.182044	0.369841	0.037432
2	C	0.144943	0.348794	0.037867
3	C	0.127208	0.311611	0.037493
4	C	0.148261	0.295561	0.037917
5	C	0.185446	0.315011	0.370847
6	C	0.201507	0.352121	0.037949
7	H	0.136008	0.268892	0.035277
8	H	0.228168	0.366523	0.035204
9	H	0.130528	0.361048	0.035188
10	C	0.198309	0.406768	0.030856
11	C	0.206115	0.298751	0.364292
12	C	0.09028	0.290942	0.030935
13	O	0.241382	0.319624	0.025702
14	O	0.177432	0.421157	0.025579
15	O	0.075891	0.255674	0.025672
16	C	0.326395	0.130593	0.967427
17	C	0.360515	0.16044	0.967427
18	C	0.366492	0.195233	0.967397
19	C	0.336639	0.199499	0.967454
20	C	0.301845	0.170685	0.300743
21	C	0.297578	0.136565	0.96746
22	H	0.340468	0.224352	0.969931
23	H	0.272723	0.115544	0.969941
24	H	0.381539	0.156613	0.969928
25	C	0.321435	0.096213	0.971754
26	C	0.272425	0.175641	0.305096
27	C	0.40087	0.224644	0.97177
28	O	0.240644	0.147385	0.981394
29	O	0.349703	0.092681	0.981288
30	O	0.404395	0.25644	0.981298
31	C	0.251062	0.21756	0.310728
32	C	0.229715	0.203928	0.015585
33	C	0.209512	0.21824	0.032505
34	C	0.210332	0.247433	0.010393
35	C	0.229241	0.25935	0.302769
36	H	0.231123	0.185024	0.033703
37	C	0.250498	0.245538	0.288534
38	H	0.264589	0.254824	0.259661
39	C	0.190475	0.204127	0.075361
40	H	0.194153	0.183243	0.089313
41	H	0.162337	0.193264	0.070257
42	H	0.199774	0.225153	0.099987
43	C	0.225226	0.282932	0.270514
44	H	0.203337	0.286996	0.278402
45	H	0.22005	0.271477	0.237204
46	H	0.249375	0.308377	0.269439
47	N	0.193056	0.263309	0.028255
48	H	0.172413	0.24895	0.046198
49	N	0.273522	0.206607	0.296156
50	H	0.291883	0.222263	0.275618
51	C	0.279522	0.032925	0.310678
52	C	0.293218	0.025195	0.01546
53	C	0.278879	0.490679	0.032397
54	C	0.249664	0.462318	0.010298
55	C	0.237761	0.469322	0.302671
56	H	0.312107	0.045494	0.033611
57	C	0.251535	0.004394	0.288482
58	H	0.242244	0.009201	0.259615
59	C	0.292996	0.485743	0.075241
60	H	0.313896	0.510297	0.089187
61	H	0.303838	0.46845	0.070124
62	H	0.271975	0.474025	0.099877
63	C	0.214126	0.441726	0.27045
64	H	0.210069	0.415771	0.278316
65	H	0.22554	0.448	0.237118
66	H	0.188686	0.440438	0.26944
67	N	0.23374	0.429181	0.028214
68	H	0.248179	0.422878	0.045965
69	N	0.290475	0.066343	0.296129
70	H	0.274806	0.069057	0.275624
71	C	0.464153	0.246024	0.310677
72	C	0.471868	0.267376	0.015529
73	C	0.006382	0.287572	0.032457
74	C	0.034752	0.286736	0.010357
75	C	0.027761	0.267828	0.302733
76	H	0.451558	0.265981	0.033637
77	C	0.492694	0.246581	0.288489
78	H	0.487886	0.232486	0.259618
79	C	0.011305	0.306614	0.075307
80	H	0.986745	0.302949	0.089248
81	H	0.02859	0.334752	0.070199
82	H	0.023022	0.297311	0.099943
83	C	0.055359	0.271832	0.270486
84	H	0.081313	0.293714	0.278378
85	H	0.049088	0.27701	0.237173
86	H	0.056646	0.247679	0.269417
87	N	0.0679	0.304002	0.02823
88	H	0.074186	0.324645	0.046175
89	N	0.430739	0.223564	0.296107
90	H	0.428029	0.205199	0.275574
91	C	0.182044	0.369841	0.370764
92	C	0.144943	0.348794	0.371199
93	C	0.127208	0.311611	0.370827
94	C	0.148261	0.295561	0.371249
95	C	0.185446	0.315011	0.704181
96	C	0.201507	0.352121	0.371282
97	H	0.136008	0.268892	0.368609
98	H	0.228168	0.366523	0.368535
99	H	0.130528	0.361048	0.368522
100	C	0.198309	0.406768	0.364189
101	C	0.206115	0.298751	0.697623
102	C	0.09028	0.290942	0.364269
103	O	0.241382	0.319624	0.359034
104	O	0.177432	0.421157	0.358911
105	O	0.075891	0.255674	0.359004
106	C	0.326395	0.130593	0.30076
107	C	0.360515	0.16044	0.300762
108	C	0.366492	0.195233	0.300731
109	C	0.336639	0.199499	0.300787
110	C	0.301845	0.170685	0.634076
111	C	0.297578	0.136565	0.300795
112	H	0.340468	0.224352	0.303266
113	H	0.272723	0.115544	0.303276
114	H	0.381539	0.156613	0.303263
115	C	0.321435	0.096213	0.305087
116	C	0.272425	0.175641	0.638429
117	C	0.40087	0.224644	0.305105
118	O	0.240644	0.147385	0.314727
119	O	0.349703	0.092681	0.314621
120	O	0.404395	0.25644	0.314631
121	C	0.251062	0.21756	0.644062
122	C	0.229715	0.203928	0.348918
123	C	0.209512	0.21824	0.365838
124	C	0.210332	0.247433	0.343727
125	C	0.229241	0.25935	0.636101
126	H	0.231123	0.185024	0.367036
127	C	0.250498	0.245538	0.621868
128	H	0.264589	0.254824	0.592992
129	C	0.190475	0.204127	0.408695
130	H	0.194153	0.183243	0.422645
131	H	0.162337	0.193264	0.40359
132	H	0.199774	0.225153	0.43332
133	C	0.225226	0.282932	0.603847
134	H	0.203337	0.286996	0.611735
135	H	0.22005	0.271477	0.570538
136	H	0.249375	0.308377	0.602773
137	N	0.193056	0.263309	0.361588
138	H	0.172413	0.24895	0.379533
139	N	0.273522	0.206607	0.62949
140	H	0.291883	0.222263	0.608951
141	C	0.279522	0.032925	0.644009
142	C	0.293218	0.025195	0.348795
143	C	0.278879	0.490679	0.365729
144	C	0.249664	0.462318	0.343631
145	C	0.237761	0.469322	0.636005
146	H	0.312107	0.045494	0.366946
147	C	0.251535	0.004394	0.621815
148	H	0.242244	0.009201	0.592949
149	C	0.292996	0.485743	0.408575
150	H	0.313896	0.510297	0.422519
151	H	0.303838	0.46845	0.403457
152	H	0.271975	0.474025	0.43321
153	C	0.214126	0.441726	0.603784
154	H	0.210069	0.415771	0.611648
155	H	0.22554	0.448	0.570452
156	H	0.188686	0.440438	0.602773
157	N	0.23374	0.429181	0.361548
158	H	0.248179	0.422878	0.379297
159	N	0.290475	0.066343	0.629463
160	H	0.274806	0.069057	0.608958
161	C	0.464153	0.246024	0.644009
162	C	0.471868	0.267376	0.348862
163	C	0.006382	0.287572	0.365789
164	C	0.034752	0.286736	0.34369
165	C	0.027761	0.267828	0.636068
166	H	0.451558	0.265981	0.366969
167	C	0.492694	0.246581	0.621821
168	H	0.487886	0.232486	0.592952
169	C	0.011305	0.306614	0.408641
170	H	0.986745	0.302949	0.422582
171	H	0.02859	0.334752	0.403533
172	H	0.023022	0.297311	0.433277
173	C	0.055359	0.271832	0.60382
174	H	0.081313	0.293714	0.611712
175	H	0.049088	0.27701	0.570505
176	H	0.056646	0.247679	0.602749
177	N	0.0679	0.304002	0.361562
178	H	0.074186	0.324645	0.379506
179	N	0.430739	0.223564	0.62944
180	H	0.428029	0.205199	0.608908
181	C	0.182044	0.369841	0.704098
182	C	0.144943	0.348794	0.704534
183	C	0.127208	0.311611	0.704158
184	C	0.148261	0.295561	0.704584
185	C	0.185446	0.315011	0.037514
186	C	0.201507	0.352121	0.704614
187	H	0.136008	0.268892	0.701943
188	H	0.228168	0.366523	0.70187
189	H	0.130528	0.361048	0.701853
190	C	0.198309	0.406768	0.69752
191	C	0.206115	0.298751	0.030958
192	C	0.09028	0.290942	0.6976
193	O	0.241382	0.319624	0.692369
194	O	0.177432	0.421157	0.692246
195	O	0.075891	0.255674	0.692339
196	C	0.326395	0.130593	0.634092
197	C	0.360515	0.16044	0.634096
198	C	0.366492	0.195233	0.634066
199	C	0.336639	0.199499	0.634119
200	C	0.301845	0.170685	0.967411
201	C	0.297578	0.136565	0.634129
202	H	0.340468	0.224352	0.6366
203	H	0.272723	0.115544	0.63661
204	H	0.381539	0.156613	0.636597
205	C	0.321435	0.096213	0.638419
206	C	0.272425	0.175641	0.971764
207	C	0.40087	0.224644	0.638439
208	O	0.240644	0.147385	0.64806
209	O	0.349703	0.092681	0.647953
210	O	0.404395	0.25644	0.647963
211	C	0.251062	0.21756	0.977394
212	C	0.229715	0.203928	0.682253
213	C	0.209512	0.21824	0.699173
214	C	0.210332	0.247433	0.677058
215	C	0.229241	0.25935	0.969436
216	H	0.231123	0.185024	0.700367
217	C	0.250498	0.245538	0.955199
218	H	0.264589	0.254824	0.926327
219	C	0.190475	0.204127	0.742026
220	H	0.194153	0.183243	0.75598
221	H	0.162337	0.193264	0.736921
222	H	0.199774	0.225153	0.766655
223	C	0.225226	0.282932	0.937181
224	H	0.203337	0.286996	0.94507
225	H	0.22005	0.271477	0.90387
226	H	0.249375	0.308377	0.936104
227	N	0.193056	0.263309	0.69492
228	H	0.172413	0.24895	0.712864
229	N	0.273522	0.206607	0.962821
230	H	0.291883	0.222263	0.942283
231	C	0.279522	0.032925	0.977344
232	C	0.293218	0.025195	0.682126
233	C	0.278879	0.490679	0.699063
234	C	0.249664	0.462318	0.676965
235	C	0.237761	0.469322	0.969336
236	H	0.312107	0.045494	0.700277
237	C	0.251535	0.004394	0.955149
238	H	0.242244	0.009201	0.92628
239	C	0.292996	0.485743	0.741906
240	H	0.313896	0.510297	0.755853
241	H	0.303838	0.46845	0.736792
242	H	0.271975	0.474025	0.766542
243	C	0.214126	0.441726	0.937115
244	H	0.210069	0.415771	0.944983
245	H	0.22554	0.448	0.903783
246	H	0.188686	0.440438	0.936107
247	N	0.23374	0.429181	0.69488
248	H	0.248179	0.422878	0.712632
249	N	0.290475	0.066343	0.962795
250	H	0.274806	0.069057	0.942289
251	C	0.464153	0.246024	0.977344
252	C	0.471868	0.267376	0.682196
253	C	0.006382	0.287572	0.699123
254	C	0.034752	0.286736	0.677025
255	C	0.027761	0.267828	0.969399
256	H	0.451558	0.265981	0.700304
257	C	0.492694	0.246581	0.955156
258	H	0.487886	0.232486	0.926284
259	C	0.011305	0.306614	0.741973
260	H	0.986745	0.302949	0.755913
261	H	0.02859	0.334752	0.736865
262	H	0.023022	0.297311	0.766608
263	C	0.055359	0.271832	0.937152
264	H	0.081313	0.293714	0.945043
265	H	0.049088	0.27701	0.90384
266	H	0.056646	0.247679	0.936084
267	N	0.0679	0.304002	0.694896
268	H	0.074186	0.324645	0.712841
269	N	0.430739	0.223564	0.962775
270	H	0.428029	0.205199	0.94224
271	C	0.182045	0.869842	0.037432
272	C	0.144942	0.848795	0.037867
273	C	0.127208	0.811612	0.037493
274	C	0.148261	0.795562	0.037917
275	C	0.185447	0.815012	0.370847
276	C	0.201506	0.852119	0.037949
277	H	0.136009	0.768893	0.035277
278	H	0.228167	0.866522	0.035204
279	H	0.130526	0.861046	0.035188
280	C	0.198308	0.906768	0.030856
281	C	0.206114	0.798749	0.364292
282	C	0.090279	0.790941	0.030935
283	O	0.241382	0.819625	0.025702
284	O	0.177432	0.921155	0.025579
285	O	0.075891	0.755675	0.025672
286	C	0.326396	0.630594	0.967427
287	C	0.360515	0.66044	0.967427
288	C	0.366491	0.695232	0.967397
289	C	0.336639	0.699499	0.967454
290	C	0.301845	0.670686	0.300743
291	C	0.297577	0.636566	0.96746
292	H	0.340469	0.724353	0.969931
293	H	0.272723	0.615545	0.969941
294	H	0.38154	0.656614	0.969928
295	C	0.321436	0.596214	0.971754
296	C	0.272424	0.675641	0.305096
297	C	0.40087	0.724644	0.97177
298	O	0.240643	0.647385	0.981394
299	O	0.349702	0.592683	0.981288
300	O	0.404393	0.75644	0.981298
301	C	0.251063	0.717561	0.310728
302	C	0.229715	0.703929	0.015585
303	C	0.209511	0.718239	0.032505
304	C	0.210332	0.747433	0.010393
305	C	0.229241	0.759351	0.302769
306	H	0.231122	0.685023	0.033703
307	C	0.250498	0.745539	0.288534
308	H	0.264589	0.754824	0.259661
309	C	0.190476	0.704128	0.075361
310	H	0.194152	0.683242	0.089313
311	H	0.162337	0.693265	0.070257
312	H	0.199774	0.725154	0.099987
313	C	0.225226	0.782933	0.270514
314	H	0.203338	0.786997	0.278402
315	H	0.22005	0.771478	0.237204
316	H	0.249374	0.808375	0.269439
317	N	0.193056	0.76331	0.028255
318	H	0.172412	0.748949	0.046198
319	N	0.273522	0.706608	0.296156
320	H	0.291882	0.722262	0.275618
321	C	0.279523	0.532926	0.310678
322	C	0.293219	0.525196	0.01546
323	C	0.278879	0.99068	0.032397
324	C	0.249664	0.962319	0.010298
325	C	0.237759	0.969321	0.302671
326	H	0.312107	0.545495	0.033611
327	C	0.251534	0.504394	0.288482
328	H	0.242243	0.509202	0.259615
329	C	0.292996	0.985744	0.075241
330	H	0.313896	0.010296	0.089187
331	H	0.303838	0.968451	0.070124
332	H	0.271975	0.974026	0.099877
333	C	0.214125	0.941724	0.27045
334	H	0.21007	0.915772	0.278316
335	H	0.225541	0.948001	0.237118
336	H	0.188687	0.940439	0.26944
337	N	0.233739	0.929182	0.028214
338	H	0.248178	0.922876	0.045965
339	N	0.290476	0.566344	0.296129
340	H	0.274805	0.569056	0.275624
341	C	0.464152	0.746025	0.310677
342	C	0.471869	0.767377	0.015529
343	C	0.006381	0.78757	0.032457
344	C	0.03475	0.786734	0.010357
345	C	0.02776	0.767826	0.302733
346	H	0.451557	0.765979	0.033637
347	C	0.492694	0.746582	0.288489
348	H	0.487887	0.732487	0.259618
349	C	0.011305	0.806615	0.075307
350	H	0.986744	0.802947	0.089248
351	H	0.028588	0.83475	0.070199
352	H	0.023022	0.797312	0.099943
353	C	0.05536	0.771833	0.270486
354	H	0.081314	0.793715	0.278378
355	H	0.049087	0.777011	0.237173
356	H	0.056645	0.747678	0.269417
357	N	0.0679	0.804001	0.02823
358	H	0.074186	0.824646	0.046175
359	N	0.430739	0.723565	0.296107
360	H	0.428029	0.7052	0.275574
361	C	0.182045	0.869842	0.370764
362	C	0.144942	0.848795	0.371199
363	C	0.127208	0.811612	0.370827
364	C	0.148261	0.795562	0.371249
365	C	0.185447	0.815012	0.704181
366	C	0.201506	0.852119	0.371282
367	H	0.136009	0.768893	0.368609
368	H	0.228167	0.866522	0.368535
369	H	0.130526	0.861046	0.368522
370	C	0.198308	0.906768	0.364189
371	C	0.206114	0.798749	0.697623
372	C	0.090279	0.790941	0.364269
373	O	0.241382	0.819625	0.359034
374	O	0.177432	0.921155	0.358911
375	O	0.075891	0.755675	0.359004
376	C	0.326396	0.630594	0.30076
377	C	0.360515	0.66044	0.300762
378	C	0.366491	0.695232	0.300731
379	C	0.336639	0.699499	0.300787
380	C	0.301845	0.670686	0.634076
381	C	0.297577	0.636566	0.300795
382	H	0.340469	0.724353	0.303266
383	H	0.272723	0.615545	0.303276
384	H	0.38154	0.656614	0.303263
385	C	0.321436	0.596214	0.305087
386	C	0.272424	0.675641	0.638429
387	C	0.40087	0.724644	0.305105
388	O	0.240643	0.647385	0.314727
389	O	0.349702	0.592683	0.314621
390	O	0.404393	0.75644	0.314631
391	C	0.251063	0.717561	0.644062
392	C	0.229715	0.703929	0.348918
393	C	0.209511	0.718239	0.365838
394	C	0.210332	0.747433	0.343727
395	C	0.229241	0.759351	0.636101
396	H	0.231122	0.685023	0.367036
397	C	0.250498	0.745539	0.621868
398	H	0.264589	0.754824	0.592996
399	C	0.190476	0.704128	0.408695
400	H	0.194152	0.683242	0.422645
401	H	0.162337	0.693265	0.40359
402	H	0.199774	0.725154	0.43332
403	C	0.225226	0.782933	0.603847
404	H	0.203338	0.786997	0.611735
405	H	0.22005	0.771478	0.570538
406	H	0.249374	0.808375	0.602773
407	N	0.193056	0.76331	0.361588
408	H	0.172412	0.748949	0.379533
409	N	0.273522	0.706608	0.62949
410	H	0.291882	0.722262	0.608951
411	C	0.279523	0.532926	0.644009
412	C	0.293219	0.525196	0.348795
413	C	0.278879	0.99068	0.365729
414	C	0.249664	0.962319	0.343631
415	C	0.237759	0.969321	0.636005
416	H	0.312107	0.545495	0.366946
417	C	0.251534	0.504394	0.621815
418	H	0.242243	0.509202	0.592949
419	C	0.292996	0.985744	0.408575
420	H	0.313896	0.010296	0.422519
421	H	0.303838	0.968451	0.403457
422	H	0.271975	0.974026	0.43321
423	C	0.214125	0.941724	0.603784
424	H	0.21007	0.915772	0.611648
425	H	0.225541	0.948001	0.570452
426	H	0.188687	0.940439	0.602773
427	N	0.233739	0.929182	0.361548
428	H	0.248178	0.922876	0.379297
429	N	0.290476	0.566344	0.629463
430	H	0.274805	0.569056	0.608958
431	C	0.464152	0.746025	0.644009
432	C	0.471869	0.767377	0.348862
433	C	0.006381	0.78757	0.365789
434	C	0.03475	0.786734	0.34369
435	C	0.02776	0.767826	0.636068
436	H	0.451557	0.765979	0.366969
437	C	0.492694	0.746582	0.621821
438	H	0.487887	0.732487	0.592952
439	C	0.011305	0.806615	0.408641
440	H	0.986744	0.802947	0.422582
441	H	0.028588	0.83475	0.403533
442	H	0.023022	0.797312	0.433277
443	C	0.05536	0.771833	0.60382
444	H	0.081314	0.793715	0.611712
445	H	0.049087	0.777011	0.570505
446	H	0.056645	0.747678	0.602749
447	N	0.0679	0.804001	0.361562
448	H	0.074186	0.824646	0.379506
449	N	0.430739	0.723565	0.62944
450	H	0.428029	0.7052	0.608908
451	C	0.182045	0.869842	0.704098
452	C	0.144942	0.848795	0.704534
453	C	0.127208	0.811612	0.704158
454	C	0.148261	0.795562	0.704584
455	C	0.185447	0.815012	0.037514
456	C	0.201506	0.852119	0.704614
457	H	0.136009	0.768893	0.701943
458	H	0.228167	0.866522	0.70187
459	H	0.130526	0.861046	0.701853
460	C	0.198308	0.906768	0.69752
461	C	0.206114	0.798749	0.030958
462	C	0.090279	0.790941	0.6976
463	O	0.241382	0.819625	0.692369
464	O	0.177432	0.921155	0.692246
465	O	0.075891	0.755675	0.692339
466	C	0.326396	0.630594	0.634092
467	C	0.360515	0.66044	0.634096
468	C	0.366491	0.695232	0.634066
469	C	0.336639	0.699499	0.634119
470	C	0.301845	0.670686	0.967411
471	C	0.297577	0.636566	0.634129
472	H	0.340469	0.724353	0.6366
473	H	0.272723	0.615545	0.63661
474	H	0.38154	0.656614	0.636597
475	C	0.321436	0.596214	0.638419
476	C	0.272424	0.675641	0.971764
477	C	0.40087	0.724644	0.638439
478	O	0.240643	0.647385	0.64806
479	O	0.349702	0.592683	0.647953
480	O	0.404393	0.75644	0.647963
481	C	0.251063	0.717561	0.977394
482	C	0.229715	0.703929	0.682253
483	C	0.209511	0.718239	0.699173
484	C	0.210332	0.747433	0.677058
485	C	0.229241	0.759351	0.969436
486	H	0.231122	0.685023	0.70037
487	C	0.250498	0.745539	0.955199
488	H	0.264589	0.754824	0.926327
489	C	0.190476	0.704128	0.742026
490	H	0.194152	0.683242	0.75598
491	H	0.162337	0.693265	0.736921
492	H	0.199774	0.725154	0.766655
493	C	0.225226	0.782933	0.937181
494	H	0.203338	0.786997	0.94507
495	H	0.22005	0.771478	0.90387
496	H	0.249374	0.808375	0.936104
497	N	0.193056	0.76331	0.69492
498	H	0.172412	0.748949	0.712864
499	N	0.273522	0.706608	0.962821
500	H	0.291882	0.722262	0.942283
501	C	0.279523	0.532926	0.977344
502	C	0.293219	0.525196	0.682126
503	C	0.278879	0.99068	0.699063
504	C	0.249664	0.962319	0.676965
505	C	0.237759	0.969321	0.969336
506	H	0.312107	0.545495	0.700277
507	C	0.251534	0.504394	0.955149
508	H	0.242243	0.509202	0.92628
509	C	0.292996	0.985744	0.741906
510	H	0.313896	0.010296	0.755853
511	H	0.303838	0.968451	0.736792
512	H	0.271975	0.974026	0.766542
513	C	0.214125	0.941724	0.937115
514	H	0.21007	0.915772	0.944983
515	H	0.225541	0.948001	0.903783
516	H	0.188687	0.940439	0.936107
517	N	0.233739	0.929182	0.69488
518	H	0.248178	0.922876	0.712632
519	N	0.290476	0.566344	0.962795
520	H	0.274805	0.569056	0.942289
521	C	0.464152	0.746025	0.977344
522	C	0.471869	0.767377	0.682196
523	C	0.006381	0.78757	0.699123
524	C	0.03475	0.786734	0.677025
525	C	0.02776	0.767826	0.969399
526	H	0.451557	0.765979	0.700304
527	C	0.492694	0.746582	0.955156
528	H	0.487887	0.732487	0.926284
529	C	0.011305	0.806615	0.741973
530	H	0.986744	0.802947	0.755913
531	H	0.028588	0.83475	0.736865
532	H	0.023022	0.797312	0.766608
533	C	0.05536	0.771833	0.937152
534	H	0.081314	0.793715	0.945043
535	H	0.049087	0.777011	0.90384
536	H	0.056645	0.747678	0.936084
537	N	0.0679	0.804001	0.694896
538	H	0.074186	0.824646	0.712841
539	N	0.430739	0.723565	0.962775
540	H	0.428029	0.7052	0.94224
541	C	0.682045	0.369841	0.037432
542	C	0.644944	0.348794	0.037867
543	C	0.627208	0.311611	0.037493
544	C	0.648263	0.295561	0.037917
545	C	0.685448	0.315011	0.370847
546	C	0.701507	0.352121	0.037949
547	H	0.636009	0.268892	0.035277
548	H	0.728169	0.366523	0.035204
549	H	0.630529	0.361048	0.035188
550	C	0.69831	0.406768	0.030856
551	C	0.706116	0.298751	0.364292
552	C	0.59028	0.290942	0.030935
553	O	0.741383	0.319624	0.025702
554	O	0.677432	0.421157	0.025579
555	O	0.57589	0.255674	0.025672
556	C	0.826397	0.130593	0.967427
557	C	0.860515	0.16044	0.967427
558	C	0.866492	0.195233	0.967397
559	C	0.836639	0.199499	0.967454
560	C	0.801846	0.170685	0.300743
561	C	0.797578	0.136565	0.96746
562	H	0.840468	0.224352	0.969931
563	H	0.772724	0.115544	0.969941
564	H	0.881541	0.156613	0.969928
565	C	0.821435	0.096213	0.971754
566	C	0.772425	0.175641	0.305096
567	C	0.90087	0.224644	0.97177
568	O	0.740643	0.147385	0.981394
569	O	0.849703	0.092681	0.981288
570	O	0.904395	0.25644	0.981298
571	C	0.751062	0.21756	0.310728
572	C	0.729716	0.203928	0.015585
573	C	0.709512	0.21824	0.032505
574	C	0.710331	0.247433	0.010393
575	C	0.729241	0.25935	0.302769
576	H	0.731124	0.185024	0.033703
577	C	0.750498	0.245538	0.288534
578	H	0.76459	0.254824	0.259661
579	C	0.690476	0.204127	0.075361
580	H	0.694154	0.183243	0.089313
581	H	0.662337	0.193264	0.070257
582	H	0.699774	0.225153	0.099987
583	C	0.725225	0.282932	0.270514
584	H	0.703338	0.286996	0.278402
585	H	0.720051	0.271477	0.237204
586	H	0.749377	0.308377	0.269439
587	N	0.693057	0.263309	0.028255
588	H	0.672413	0.24895	0.046198
589	N	0.773523	0.206607	0.296156
590	H	0.791883	0.222263	0.275618
591	C	0.779522	0.032925	0.310678
592	C	0.793221	0.025195	0.01546
593	C	0.778879	0.490679	0.032397
594	C	0.749664	0.462318	0.010298
595	C	0.737762	0.469322	0.302671
596	H	0.812107	0.045494	0.033611
597	C	0.751535	0.004394	0.288482
598	H	0.742244	0.009201	0.259615
599	C	0.792996	0.485743	0.075241
600	H	0.813896	0.510297	0.089187
601	H	0.803839	0.46845	0.070124
602	H	0.771974	0.474025	0.099877
603	C	0.714126	0.441726	0.27045
604	H	0.71007	0.415771	0.278316
605	H	0.72554	0.448	0.237118
606	H	0.688686	0.440438	0.26944
607	N	0.733741	0.429181	0.028214
608	H	0.74818	0.422878	0.045965
609	N	0.790475	0.066343	0.296129
610	H	0.774806	0.069057	0.275624
611	C	0.964153	0.246024	0.310677
612	C	0.971868	0.267376	0.015529
613	C	0.506382	0.287572	0.032457
614	C	0.534751	0.286736	0.010357
615	C	0.527761	0.267828	0.302733
616	H	0.951558	0.265981	0.033637
617	C	0.992694	0.246581	0.288489
618	H	0.987886	0.232486	0.259618
619	C	0.511305	0.306614	0.075307
620	H	0.486745	0.302949	0.089248
621	H	0.528591	0.334752	0.070199
622	H	0.523022	0.297311	0.099943
623	C	0.55536	0.271832	0.270486
624	H	0.581313	0.293714	0.278378
625	H	0.549087	0.27701	0.237173
626	H	0.556646	0.247679	0.269417
627	N	0.5679	0.304002	0.02823
628	H	0.574185	0.324645	0.046175
629	N	0.930739	0.223564	0.296107
630	H	0.928029	0.205199	0.275574
631	C	0.682045	0.369841	0.370764
632	C	0.644944	0.348794	0.371199
633	C	0.627208	0.311611	0.370827
634	C	0.648263	0.295561	0.371249
635	C	0.685448	0.315011	0.704181
636	C	0.701507	0.352121	0.371282
637	H	0.636009	0.268892	0.368609
638	H	0.728169	0.366523	0.368535
639	H	0.630529	0.361048	0.368522
640	C	0.69831	0.406768	0.364189
641	C	0.706116	0.298751	0.697623
642	C	0.59028	0.290942	0.364269
643	O	0.741383	0.319624	0.359034
644	O	0.677432	0.421157	0.358911
645	O	0.57589	0.255674	0.359004
646	C	0.826397	0.130593	0.30076
647	C	0.860515	0.16044	0.300762
648	C	0.866492	0.195233	0.300731
649	C	0.836639	0.199499	0.300787
650	C	0.801846	0.170685	0.634076
651	C	0.797578	0.136565	0.300795
652	H	0.840468	0.224352	0.303266
653	H	0.772724	0.115544	0.303276
654	H	0.881541	0.156613	0.303263
655	C	0.821435	0.096213	0.305087
656	C	0.772425	0.175641	0.638429
657	C	0.90087	0.224644	0.305105
658	O	0.740643	0.147385	0.314727
659	O	0.849703	0.092681	0.314621
660	O	0.904395	0.25644	0.314631
661	C	0.751062	0.21756	0.644062
662	C	0.729716	0.203928	0.348918
663	C	0.709512	0.21824	0.365838
664	C	0.710331	0.247433	0.343727
665	C	0.729241	0.25935	0.636101
666	H	0.731124	0.185024	0.367036
667	C	0.750498	0.245538	0.621868
668	H	0.76459	0.254824	0.592992
669	C	0.690476	0.204127	0.408695
670	H	0.694154	0.183243	0.422645
671	H	0.662337	0.193264	0.40359
672	H	0.699774	0.225153	0.43332
673	C	0.725225	0.282932	0.603847
674	H	0.703338	0.286996	0.611735
675	H	0.720051	0.271477	0.570538
676	H	0.749377	0.308377	0.602773
677	N	0.693057	0.263309	0.361588
678	H	0.672413	0.24895	0.379533
679	N	0.773523	0.206607	0.62949
680	H	0.791883	0.222263	0.608951
681	C	0.779522	0.032925	0.644009
682	C	0.793221	0.025195	0.348795
683	C	0.778879	0.490679	0.365729
684	C	0.749664	0.462318	0.343631
685	C	0.737762	0.469322	0.636005
686	H	0.812107	0.045494	0.366946
687	C	0.751535	0.004394	0.621815
688	H	0.742244	0.009201	0.592949
689	C	0.792996	0.485743	0.408575
690	H	0.813896	0.510297	0.422519
691	H	0.803839	0.46845	0.403457
692	H	0.771974	0.474025	0.43321
693	C	0.714126	0.441726	0.603784
694	H	0.71007	0.415771	0.611648
695	H	0.72554	0.448	0.570452
696	H	0.688686	0.440438	0.602773
697	N	0.733741	0.429181	0.361548
698	H	0.74818	0.422878	0.379297
699	N	0.790475	0.066343	0.629463
700	H	0.774806	0.069057	0.608958
701	C	0.964153	0.246024	0.644009
702	C	0.971868	0.267376	0.348862
703	C	0.506382	0.287572	0.365789
704	C	0.534751	0.286736	0.34369
705	C	0.527761	0.267828	0.636068
706	H	0.951558	0.265981	0.366969
707	C	0.992694	0.246581	0.621821
708	H	0.987886	0.232486	0.592952
709	C	0.511305	0.306614	0.408641
710	H	0.486745	0.302949	0.422582
711	H	0.528591	0.334752	0.403533
712	H	0.523022	0.297311	0.433277
713	C	0.55536	0.271832	0.60382
714	H	0.581313	0.293714	0.611712
715	H	0.549087	0.27701	0.570505
716	H	0.556646	0.247679	0.602749
717	N	0.5679	0.304002	0.361562
718	H	0.574185	0.324645	0.379506
719	N	0.930739	0.223564	0.62944
720	H	0.928029	0.205199	0.608908
721	C	0.682045	0.369841	0.704098
722	C	0.644944	0.348794	0.704534
723	C	0.627208	0.311611	0.704158
724	C	0.648263	0.295561	0.704584
725	C	0.685448	0.315011	0.037514
726	C	0.701507	0.352121	0.704614
727	H	0.636009	0.268892	0.701943
728	H	0.728169	0.366523	0.70187
729	H	0.630529	0.361048	0.701853
730	C	0.69831	0.406768	0.69752
731	C	0.706116	0.298751	0.030958
732	C	0.59028	0.290942	0.6976
733	O	0.741383	0.319624	0.692369
734	O	0.677432	0.421157	0.692246
735	O	0.57589	0.255674	0.692339
736	C	0.826397	0.130593	0.634092
737	C	0.860515	0.16044	0.634096
738	C	0.866492	0.195233	0.634066
739	C	0.836639	0.199499	0.634119
740	C	0.801846	0.170685	0.967411
741	C	0.797578	0.136565	0.634129
742	H	0.840468	0.224352	0.6366
743	H	0.772724	0.115544	0.63661
744	H	0.881541	0.156613	0.636597
745	C	0.821435	0.096213	0.638419
746	C	0.772425	0.175641	0.971764
747	C	0.90087	0.224644	0.638439
748	O	0.740643	0.147385	0.64806
749	O	0.849703	0.092681	0.647953
750	O	0.904395	0.25644	0.647963
751	C	0.751062	0.21756	0.977394
752	C	0.729716	0.203928	0.682253
753	C	0.709512	0.21824	0.699173
754	C	0.710331	0.247433	0.677058
755	C	0.729241	0.25935	0.969436
756	H	0.731124	0.185024	0.700367
757	C	0.750498	0.245538	0.955199
758	H	0.76459	0.254824	0.926327
759	C	0.690476	0.204127	0.742026
760	H	0.694154	0.183243	0.75598
761	H	0.662337	0.193264	0.736921
762	H	0.699774	0.225153	0.766655
763	C	0.725225	0.282932	0.937181
764	H	0.703338	0.286996	0.94507
765	H	0.720051	0.271477	0.90387
766	H	0.749377	0.308377	0.936104
767	N	0.693057	0.263309	0.69492
768	H	0.672413	0.24895	0.712864
769	N	0.773523	0.206607	0.962821
770	H	0.791883	0.222263	0.942283
771	C	0.779522	0.032925	0.977344
772	C	0.793221	0.025195	0.682126
773	C	0.778879	0.490679	0.699063
774	C	0.749664	0.462318	0.676965
775	C	0.737762	0.469322	0.969336
776	H	0.812107	0.045494	0.700277
777	C	0.751535	0.004394	0.955149
778	H	0.742244	0.009201	0.92628
779	C	0.792996	0.485743	0.741906
780	H	0.813896	0.510297	0.755853
781	H	0.803839	0.46845	0.736792
782	H	0.771974	0.474025	0.766542
783	C	0.714126	0.441726	0.937115
784	H	0.71007	0.415771	0.944983
785	H	0.72554	0.448	0.903783
786	H	0.688686	0.440438	0.936107
787	N	0.733741	0.429181	0.69488
788	H	0.74818	0.422878	0.712632
789	N	0.790475	0.066343	0.962795
790	H	0.774806	0.069057	0.942289
791	C	0.964153	0.246024	0.977344
792	C	0.971868	0.267376	0.682196
793	C	0.506382	0.287572	0.699123
794	C	0.534751	0.286736	0.677025
795	C	0.527761	0.267828	0.969399
796	H	0.951558	0.265981	0.700304
797	C	0.992694	0.246581	0.955156
798	H	0.987886	0.232486	0.926284
799	C	0.511305	0.306614	0.741973
800	H	0.486745	0.302949	0.755913
801	H	0.528591	0.334752	0.736865
802	H	0.523022	0.297311	0.766608
803	C	0.55536	0.271832	0.937152
804	H	0.581313	0.293714	0.945043
805	H	0.549087	0.27701	0.90384
806	H	0.556646	0.247679	0.936084
807	N	0.5679	0.304002	0.694896
808	H	0.574185	0.324645	0.712841
809	N	0.930739	0.223564	0.962775
810	H	0.928029	0.205199	0.94224
811	C	0.682045	0.869842	0.037432
812	C	0.644943	0.848795	0.037867
813	C	0.627208	0.811612	0.037493
814	C	0.648261	0.795562	0.037917
815	C	0.685446	0.815012	0.370847
816	C	0.701506	0.852119	0.037949
817	H	0.636009	0.768893	0.035277
818	H	0.728168	0.866522	0.035204
819	H	0.630528	0.861046	0.035188
820	C	0.69831	0.906768	0.030856
821	C	0.706115	0.798749	0.364292
822	C	0.59028	0.790941	0.030935
823	O	0.741383	0.819625	0.025702
824	O	0.677431	0.921155	0.025579
825	O	0.575891	0.755675	0.025672
826	C	0.826396	0.630594	0.967427
827	C	0.860515	0.66044	0.967427
828	C	0.866492	0.695232	0.967397
829	C	0.836639	0.699499	0.967454
830	C	0.801846	0.670686	0.300743
831	C	0.797578	0.636566	0.96746
832	H	0.840468	0.724353	0.969931
833	H	0.772724	0.615545	0.969941
834	H	0.881542	0.656614	0.969928
835	C	0.821435	0.596214	0.971754
836	C	0.772425	0.675641	0.305096
837	C	0.90087	0.724644	0.97177
838	O	0.740643	0.647385	0.981394
839	O	0.849703	0.592683	0.981288
840	O	0.904394	0.75644	0.981298
841	C	0.751063	0.717561	0.310728
842	C	0.729714	0.703929	0.015585
843	C	0.709511	0.718239	0.032505
844	C	0.710332	0.747433	0.010393
845	C	0.729241	0.759351	0.302769
846	H	0.731123	0.685023	0.033703
847	C	0.750499	0.745539	0.288534
848	H	0.76459	0.754824	0.259661
849	C	0.690477	0.704128	0.075361
850	H	0.694154	0.683242	0.089313
851	H	0.662338	0.693265	0.070257
852	H	0.699775	0.725154	0.099987
853	C	0.725226	0.782933	0.270514
854	H	0.703338	0.786997	0.278402
855	H	0.720051	0.771478	0.237204
856	H	0.749374	0.808375	0.269439
857	N	0.693058	0.76331	0.028255
858	H	0.672412	0.748949	0.046198
859	N	0.773522	0.706608	0.296156
860	H	0.791883	0.722262	0.275618
861	C	0.779523	0.532926	0.310678
862	C	0.793219	0.525196	0.01546
863	C	0.77888	0.99068	0.032397
864	C	0.749664	0.962319	0.010298
865	C	0.737759	0.969321	0.302671
866	H	0.812107	0.545495	0.033611
867	C	0.751535	0.504394	0.288482
868	H	0.742244	0.509202	0.259615
869	C	0.792996	0.985744	0.075241
870	H	0.813896	0.010296	0.089187
871	H	0.803838	0.968451	0.070124
872	H	0.771975	0.974026	0.099877
873	C	0.714125	0.941724	0.27045
874	H	0.71007	0.915772	0.278316
875	H	0.725541	0.948001	0.237118
876	H	0.688686	0.940439	0.26944
877	N	0.733742	0.929182	0.028214
878	H	0.748179	0.922876	0.045965
879	N	0.790476	0.566344	0.296129
880	H	0.774806	0.569056	0.275624
881	C	0.964153	0.746025	0.310677
882	C	0.971869	0.767377	0.015529
883	C	0.506381	0.78757	0.032457
884	C	0.534751	0.786734	0.010357
885	C	0.527761	0.767826	0.302733
886	H	0.951557	0.765979	0.033637
887	C	0.992695	0.746582	0.288489
888	H	0.987886	0.732487	0.259618
889	C	0.511306	0.806615	0.075307
890	H	0.486744	0.802947	0.089248
891	H	0.528589	0.83475	0.070199
892	H	0.523022	0.797312	0.099943
893	C	0.55536	0.771833	0.270486
894	H	0.581314	0.793715	0.278378
895	H	0.549088	0.777011	0.237173
896	H	0.556645	0.747678	0.269417
897	N	0.567899	0.804001	0.02823
898	H	0.574186	0.824646	0.046175
899	N	0.930739	0.723565	0.296107
900	H	0.92803	0.7052	0.275574
901	C	0.682045	0.869842	0.370764
902	C	0.644943	0.848795	0.371199
903	C	0.627208	0.811612	0.370827
904	C	0.648261	0.795562	0.371249
905	C	0.685446	0.815012	0.704181
906	C	0.701506	0.852119	0.371282
907	H	0.636009	0.768893	0.368609
908	H	0.728168	0.866522	0.368535
909	H	0.630528	0.861046	0.368522
910	C	0.69831	0.906768	0.364189
911	C	0.706115	0.798749	0.697623
912	C	0.59028	0.790941	0.364269
913	O	0.741383	0.819625	0.359034
914	O	0.677431	0.921155	0.358911
915	O	0.575891	0.755675	0.359004
916	C	0.826396	0.630594	0.30076
917	C	0.860515	0.66044	0.300762
918	C	0.866492	0.695232	0.300731
919	C	0.836639	0.699499	0.300787
920	C	0.801846	0.670686	0.634076
921	C	0.797578	0.636566	0.300795
922	H	0.840468	0.724353	0.303266
923	H	0.772724	0.615545	0.303276
924	H	0.881542	0.656614	0.303263
925	C	0.821435	0.596214	0.305087
926	C	0.772425	0.675641	0.638429
927	C	0.90087	0.724644	0.305105
928	O	0.740643	0.647385	0.314727
929	O	0.849703	0.592683	0.314621
930	O	0.904394	0.75644	0.314631
931	C	0.751063	0.717561	0.644062
932	C	0.729714	0.703929	0.348918
933	C	0.709511	0.718239	0.365838
934	C	0.710332	0.747433	0.343727
935	C	0.729241	0.759351	0.636101
936	H	0.731123	0.685023	0.367036
937	C	0.750499	0.745539	0.621868
938	H	0.76459	0.754824	0.592996
939	C	0.690477	0.704128	0.408695
940	H	0.694154	0.683242	0.422645
941	H	0.662338	0.693265	0.40359
942	H	0.699775	0.725154	0.43332
943	C	0.725226	0.782933	0.603847
944	H	0.703338	0.786997	0.611735
945	H	0.720051	0.771478	0.570538
946	H	0.749374	0.808375	0.602773
947	N	0.693058	0.76331	0.361588
948	H	0.672412	0.748949	0.379533
949	N	0.773522	0.706608	0.62949
950	H	0.791883	0.722262	0.608951
951	C	0.779523	0.532926	0.644009
952	C	0.793219	0.525196	0.348795
953	C	0.77888	0.99068	0.365729
954	C	0.749664	0.962319	0.343631
955	C	0.737759	0.969321	0.636005
956	H	0.812107	0.545495	0.366946
957	C	0.751535	0.504394	0.621815
958	H	0.742244	0.509202	0.592949
959	C	0.792996	0.985744	0.408575
960	H	0.813896	0.010296	0.422519
961	H	0.803838	0.968451	0.403457
962	H	0.771975	0.974026	0.43321
963	C	0.714125	0.941724	0.603784
964	H	0.71007	0.915772	0.611648
965	H	0.725541	0.948001	0.570452
966	H	0.688686	0.940439	0.602773
967	N	0.733742	0.929182	0.361548
968	H	0.748179	0.922876	0.379297
969	N	0.790476	0.566344	0.629463
970	H	0.774806	0.569056	0.608958
971	C	0.964153	0.746025	0.644009
972	C	0.971869	0.767377	0.348862
973	C	0.506381	0.78757	0.365789
974	C	0.534751	0.786734	0.34369
975	C	0.527761	0.767826	0.636068
976	H	0.951557	0.765979	0.366969
977	C	0.992695	0.746582	0.621821
978	H	0.987886	0.732487	0.592952
979	C	0.511306	0.806615	0.408641
980	H	0.486744	0.802947	0.422582
981	H	0.528589	0.83475	0.403533
982	H	0.523022	0.797312	0.433277
983	C	0.55536	0.771833	0.60382
984	H	0.581314	0.793715	0.611712
985	H	0.549088	0.777011	0.570505
986	H	0.556645	0.747678	0.602749
987	N	0.567899	0.804001	0.361562
988	H	0.574186	0.824646	0.379506
989	N	0.930739	0.723565	0.62944
990	H	0.92803	0.7052	0.608908
991	C	0.682045	0.869842	0.704098
992	C	0.644943	0.848795	0.704534
993	C	0.627208	0.811612	0.704158
994	C	0.648261	0.795562	0.704584
995	C	0.685446	0.815012	0.037514
996	C	0.701506	0.852119	0.704614
997	H	0.636009	0.768893	0.701943
998	H	0.728168	0.866522	0.70187
999	H	0.630528	0.861046	0.701853
1000	C	0.69831	0.906768	0.69752
1001	C	0.706115	0.798749	0.030958
1002	C	0.59028	0.790941	0.6976
1003	O	0.741383	0.819625	0.692369
1004	O	0.677431	0.921155	0.692246
1005	O	0.575891	0.755675	0.692339
1006	C	0.826396	0.630594	0.634092
1007	C	0.860515	0.66044	0.634096
1008	C	0.866492	0.695232	0.634066
1009	C	0.836639	0.699499	0.634119
1010	C	0.801846	0.670686	0.967411
1011	C	0.797578	0.636566	0.634129
1012	H	0.840468	0.724353	0.6366
1013	H	0.772724	0.615545	0.63661
1014	H	0.881542	0.656614	0.636597
1015	C	0.821435	0.596214	0.638419
1016	C	0.772425	0.675641	0.971764
1017	C	0.90087	0.724644	0.638439
1018	O	0.740643	0.647385	0.64806
1019	O	0.849703	0.592683	0.647953
1020	O	0.904394	0.75644	0.647963
1021	C	0.751063	0.717561	0.977394
1022	C	0.729714	0.703929	0.682253
1023	C	0.709511	0.718239	0.699173
1024	C	0.710332	0.747433	0.677058
1025	C	0.729241	0.759351	0.969436
1026	H	0.731123	0.685023	0.70037
1027	C	0.750499	0.745539	0.955199
1028	H	0.76459	0.754824	0.926327
1029	C	0.690477	0.704128	0.742026
1030	H	0.694154	0.683242	0.75598
1031	H	0.662338	0.693265	0.736921
1032	H	0.699775	0.725154	0.766655
1033	C	0.725226	0.782933	0.937181
1034	H	0.703338	0.786997	0.94507
1035	H	0.720051	0.771478	0.90387
1036	H	0.749374	0.808375	0.936104
1037	N	0.693058	0.76331	0.69492
1038	H	0.672412	0.748949	0.712864
1039	N	0.773522	0.706608	0.962821
1040	H	0.791883	0.722262	0.942283
1041	C	0.779523	0.532926	0.977344
1042	C	0.793219	0.525196	0.682126
1043	C	0.77888	0.99068	0.699063
1044	C	0.749664	0.962319	0.676965
1045	C	0.737759	0.969321	0.969336
1046	H	0.812107	0.545495	0.700277
1047	C	0.751535	0.504394	0.955149
1048	H	0.742244	0.509202	0.92628
1049	C	0.792996	0.985744	0.741906
1050	H	0.813896	0.010296	0.755853
1051	H	0.803838	0.968451	0.736792
1052	H	0.771975	0.974026	0.766542
1053	C	0.714125	0.941724	0.937115
1054	H	0.71007	0.915772	0.944983
1055	H	0.725541	0.948001	0.903783
1056	H	0.688686	0.940439	0.936107
1057	N	0.733742	0.929182	0.69488
1058	H	0.748179	0.922876	0.712632
1059	N	0.790476	0.566344	0.962795
1060	H	0.774806	0.569056	0.942289
1061	C	0.964153	0.746025	0.977344
1062	C	0.971869	0.767377	0.682196
1063	C	0.506381	0.78757	0.699123
1064	C	0.534751	0.786734	0.677025
1065	C	0.527761	0.767826	0.969399
1066	H	0.951557	0.765979	0.700304
1067	C	0.992695	0.746582	0.955156
1068	H	0.987886	0.732487	0.926284
1069	C	0.511306	0.806615	0.741973
1070	H	0.486744	0.802947	0.755913
1071	H	0.528589	0.83475	0.736865
1072	H	0.523022	0.797312	0.766608
1073	C	0.55536	0.771833	0.937152
1074	H	0.581314	0.793715	0.945043
1075	H	0.549088	0.777011	0.90384
1076	H	0.556645	0.747678	0.936084
1077	N	0.567899	0.804001	0.694896
1078	H	0.574186	0.824646	0.712841
1079	N	0.930739	0.723565	0.962775
1080	H	0.92803	0.7052	0.94224
