data_C612H432N96O36_2018-02-15_10:41:00
#******************************************
#
# CIF file created by Zeo++
# Zeo++ is an open source package to
# analyze microporous materials
#
#*******************************************

_cell_length_a		50.1075   
_cell_length_b		50.1076   
_cell_length_c		29.1124   
_cell_angle_alpha		90   
_cell_angle_beta		90   
_cell_angle_gamma		120   

_symmetry_space_group_name_H-M		'P1'
_symmetry_Int_Tables_number		1
_symmetry_cell_setting		Monoclinic

loop_
_symmetry_equiv_pos_as_xyz
'+x,+y,+z'

loop_
_atom_site_label
_atom_site_type_symbol
_atom_site_fract_x
_atom_site_fract_y
_atom_site_fract_z
1	N	0.189542	0.348586	0.012034
2	C	0.206807	0.332619	0.013584
3	C	0.205513	0.381821	0.013587
4	C	0.156308	0.331321	0.013553
5	C	0.140362	0.309772	0.048869
6	C	0.107793	0.292853	0.050402
7	C	0.089276	0.297397	0.017967
8	C	0.105536	0.318734	0.982192
9	C	0.138138	0.33513	0.979876
10	C	0.22828	0.338158	0.048987
11	C	0.245184	0.322493	0.050565
12	C	0.24072	0.299501	0.018048
13	C	0.219467	0.294498	0.982178
14	C	0.203073	0.310706	0.979839
15	C	0.227471	0.4	0.979897
16	C	0.243672	0.432604	0.982233
17	C	0.238606	0.448852	0.018035
18	C	0.215556	0.430322	0.05048
19	C	0.199912	0.397754	0.048926
20	H	0.261606	0.328911	0.075399
21	H	0.232204	0.354292	0.073587
22	H	0.187836	0.306044	0.953523
23	H	0.215306	0.27843	0.957329
24	H	0.152561	0.305772	0.073392
25	H	0.097782	0.276367	0.075147
26	H	0.232183	0.389425	0.95364
27	H	0.259786	0.444511	0.957443
28	H	0.209108	0.440324	0.075278
29	H	0.183744	0.385542	0.073485
30	H	0.148723	0.350427	0.95363
31	H	0.093636	0.322958	0.957412
32	N	0.356205	0.181922	0.012563
33	C	0.339596	0.198418	0.012478
34	C	0.339708	0.148817	0.012474
35	C	0.389309	0.198532	0.012457
36	C	0.406226	0.214386	0.972996
37	C	0.438847	0.230529	0.972811
38	C	0.456316	0.231958	0.012172
39	C	0.438954	0.216231	0.051776
40	C	0.40634	0.199762	0.051861
41	C	0.323763	0.199512	0.973013
42	C	0.307614	0.215986	0.972855
43	C	0.306178	0.232004	0.012234
44	C	0.321887	0.230343	0.051841
45	C	0.33835	0.214191	0.051907
46	C	0.323907	0.131794	0.051883
47	C	0.307763	0.099179	0.051816
48	C	0.306125	0.08181	0.01222
49	C	0.322171	0.099269	0.972859
50	C	0.338644	0.131892	0.97302
51	H	0.296297	0.215547	0.943425
52	H	0.32404	0.188277	0.943844
53	H	0.349432	0.213843	0.081206
54	H	0.321952	0.241446	0.081365
55	H	0.394704	0.214123	0.943847
56	H	0.449715	0.241879	0.943397
57	H	0.324238	0.143222	0.081176
58	H	0.296634	0.088141	0.081325
59	H	0.322637	0.088396	0.943438
60	H	0.3499	0.143407	0.943864
61	H	0.394918	0.188668	0.08116
62	H	0.449999	0.216152	0.081286
63	C	0.257336	0.282658	0.019555
64	N	0.266665	0.276429	0.312177
65	C	0.28198	0.260517	0.307131
66	C	0.289625	0.24891	0.01289
67	N	0.279904	0.254811	0.053377
68	C	0.264391	0.270585	0.059306
69	H	0.288273	0.257909	0.274855
70	C	0.254984	0.272129	0.107092
71	O	0.222625	0.261301	0.10922
72	H	0.268229	0.295754	0.119675
73	H	0.260069	0.257842	0.12985
74	H	0.217573	0.26331	0.14124
75	C	0.255434	0.482313	0.019542
76	N	0.261762	0.497868	0.312152
77	C	0.277706	0.029095	0.307102
78	C	0.289219	0.04835	0.012873
79	N	0.283232	0.032727	0.05337
80	C	0.267431	0.50144	0.059305
81	H	0.280353	0.037993	0.274817
82	C	0.265823	0.490494	0.10711
83	O	0.276653	0.468965	0.109333
84	H	0.242181	0.480112	0.119615
85	H	0.280076	0.509867	0.129885
86	H	0.274599	0.461907	0.14136
87	C	0.055816	0.280785	0.01947
88	N	0.040257	0.271553	0.312081
89	C	0.509028	0.256254	0.30704
90	C	0.489775	0.248518	0.012814
91	N	0.505402	0.258146	0.053309
92	C	0.036689	0.273641	0.059237
93	H	0.500128	0.250037	0.274751
94	C	0.047639	0.28293	0.107052
95	O	0.069186	0.31528	0.109336
96	H	0.058004	0.269643	0.119509
97	H	0.028268	0.277803	0.129839
98	H	0.076248	0.320253	0.141366
99	N	0.189542	0.348586	0.345368
100	C	0.206807	0.332619	0.346913
101	C	0.205513	0.381821	0.34692
102	C	0.156308	0.331321	0.346886
103	C	0.140362	0.309772	0.382204
104	C	0.107793	0.292853	0.383736
105	C	0.089276	0.297397	0.3513
106	C	0.105536	0.318734	0.315525
107	C	0.138138	0.33513	0.313207
108	C	0.22828	0.338158	0.382321
109	C	0.245184	0.322493	0.383898
110	C	0.24072	0.299501	0.351382
111	C	0.219467	0.294498	0.315509
112	C	0.203073	0.310706	0.31317
113	C	0.227471	0.4	0.313229
114	C	0.243672	0.432604	0.315564
115	C	0.238606	0.448852	0.351369
116	C	0.215556	0.430322	0.383815
117	C	0.199912	0.397754	0.382259
118	H	0.261606	0.328911	0.408732
119	H	0.232204	0.354292	0.406922
120	H	0.187836	0.306044	0.286855
121	H	0.215306	0.27843	0.290663
122	H	0.152561	0.305772	0.406726
123	H	0.097782	0.276367	0.408482
124	H	0.232183	0.389425	0.286971
125	H	0.259786	0.444511	0.290775
126	H	0.209108	0.440324	0.408612
127	H	0.183744	0.385542	0.406819
128	H	0.148723	0.350427	0.286962
129	H	0.093636	0.322958	0.290744
130	N	0.356205	0.181922	0.345897
131	C	0.339596	0.198418	0.345811
132	C	0.339708	0.148817	0.345804
133	C	0.389309	0.198532	0.34579
134	C	0.406226	0.214386	0.306327
135	C	0.438847	0.230529	0.306144
136	C	0.456316	0.231958	0.345502
137	C	0.438954	0.216231	0.38511
138	C	0.40634	0.199762	0.385196
139	C	0.323763	0.199512	0.306345
140	C	0.307614	0.215986	0.306187
141	C	0.306178	0.232004	0.345567
142	C	0.321887	0.230343	0.385175
143	C	0.33835	0.214191	0.385241
144	C	0.323907	0.131794	0.385217
145	C	0.307763	0.099179	0.385151
146	C	0.306125	0.08181	0.345553
147	C	0.322171	0.099269	0.30619
148	C	0.338644	0.131892	0.306352
149	H	0.296297	0.215547	0.276758
150	H	0.32404	0.188277	0.277178
151	H	0.349432	0.213843	0.414541
152	H	0.321952	0.241446	0.414699
153	H	0.394704	0.214123	0.277178
154	H	0.449715	0.241879	0.276729
155	H	0.324238	0.143222	0.41451
156	H	0.296634	0.088141	0.414658
157	H	0.322637	0.088396	0.276772
158	H	0.3499	0.143407	0.277198
159	H	0.394918	0.188668	0.414493
160	H	0.449999	0.216152	0.41462
161	C	0.257336	0.282658	0.35289
162	N	0.266665	0.276429	0.645511
163	C	0.28198	0.260517	0.640465
164	C	0.289625	0.24891	0.346223
165	N	0.279904	0.254811	0.386711
166	C	0.264391	0.270585	0.39264
167	H	0.288273	0.257909	0.60819
168	C	0.254984	0.272129	0.440427
169	O	0.222625	0.261301	0.442553
170	H	0.268229	0.295754	0.453009
171	H	0.260069	0.257842	0.463183
172	H	0.217573	0.26331	0.474574
173	C	0.255434	0.482313	0.352877
174	N	0.261762	0.497868	0.645487
175	C	0.277706	0.029095	0.640437
176	C	0.289219	0.04835	0.346206
177	N	0.283232	0.032727	0.386704
178	C	0.267431	0.50144	0.39264
179	H	0.280353	0.037993	0.608152
180	C	0.265823	0.490494	0.440444
181	O	0.276653	0.468965	0.442666
182	H	0.242181	0.480112	0.452947
183	H	0.280076	0.509867	0.463218
184	H	0.274599	0.461907	0.474694
185	C	0.055816	0.280785	0.352804
186	N	0.040257	0.271553	0.645415
187	C	0.509028	0.256254	0.640372
188	C	0.489775	0.248518	0.346147
189	N	0.505402	0.258146	0.386642
190	C	0.036689	0.273641	0.392571
191	H	0.500128	0.250037	0.608084
192	C	0.047639	0.28293	0.440385
193	O	0.069186	0.31528	0.44267
194	H	0.058004	0.269643	0.452844
195	H	0.028268	0.277803	0.463173
196	H	0.076248	0.320253	0.474701
197	N	0.189542	0.348586	0.678699
198	C	0.206807	0.332619	0.680249
199	C	0.205513	0.381821	0.680255
200	C	0.156308	0.331321	0.680218
201	C	0.140362	0.309772	0.715536
202	C	0.107793	0.292853	0.717071
203	C	0.089276	0.297397	0.684635
204	C	0.105536	0.318734	0.64886
205	C	0.138138	0.33513	0.646541
206	C	0.22828	0.338158	0.715656
207	C	0.245184	0.322493	0.717233
208	C	0.24072	0.299501	0.684717
209	C	0.219467	0.294498	0.648843
210	C	0.203073	0.310706	0.646503
211	C	0.227471	0.4	0.646562
212	C	0.243672	0.432604	0.648898
213	C	0.238606	0.448852	0.684704
214	C	0.215556	0.430322	0.717147
215	C	0.199912	0.397754	0.715594
216	H	0.261606	0.328911	0.742067
217	H	0.232204	0.354292	0.740254
218	H	0.187836	0.306044	0.620188
219	H	0.215306	0.27843	0.623998
220	H	0.152561	0.305772	0.740058
221	H	0.097782	0.276367	0.741813
222	H	0.232183	0.389425	0.620305
223	H	0.259786	0.444511	0.624108
224	H	0.209108	0.440324	0.741947
225	H	0.183744	0.385542	0.740151
226	H	0.148723	0.350427	0.620298
227	H	0.093636	0.322958	0.624077
228	N	0.356205	0.181922	0.679228
229	C	0.339596	0.198418	0.679146
230	C	0.339708	0.148817	0.679139
231	C	0.389309	0.198532	0.679122
232	C	0.406226	0.214386	0.639661
233	C	0.438847	0.230529	0.639479
234	C	0.456316	0.231958	0.678837
235	C	0.438954	0.216231	0.718445
236	C	0.40634	0.199762	0.718528
237	C	0.323763	0.199512	0.639678
238	C	0.307614	0.215986	0.63952
239	C	0.306178	0.232004	0.678899
240	C	0.321887	0.230343	0.718507
241	C	0.33835	0.214191	0.718576
242	C	0.323907	0.131794	0.718552
243	C	0.307763	0.099179	0.718483
244	C	0.306125	0.08181	0.678885
245	C	0.322171	0.099269	0.639524
246	C	0.338644	0.131892	0.639685
247	H	0.296297	0.215547	0.610093
248	H	0.32404	0.188277	0.610512
249	H	0.349432	0.213843	0.747876
250	H	0.321952	0.241446	0.748034
251	H	0.394704	0.214123	0.610512
252	H	0.449715	0.241879	0.610062
253	H	0.324238	0.143222	0.747845
254	H	0.296634	0.088141	0.747993
255	H	0.322637	0.088396	0.610107
256	H	0.3499	0.143407	0.610533
257	H	0.394918	0.188668	0.747828
258	H	0.449999	0.216152	0.747955
259	C	0.257336	0.282658	0.686222
260	N	0.266665	0.276429	0.978846
261	C	0.28198	0.260517	0.9738
262	C	0.289625	0.24891	0.679558
263	N	0.279904	0.254811	0.720046
264	C	0.264391	0.270585	0.725975
265	H	0.288273	0.257909	0.941522
266	C	0.254984	0.272129	0.773762
267	O	0.222625	0.261301	0.775888
268	H	0.268229	0.295754	0.786344
269	H	0.260069	0.257842	0.796518
270	H	0.217573	0.26331	0.807909
271	C	0.255434	0.482313	0.686212
272	N	0.261762	0.497868	0.978822
273	C	0.277706	0.029095	0.973769
274	C	0.289219	0.04835	0.679541
275	N	0.283232	0.032727	0.720039
276	C	0.267431	0.50144	0.725971
277	H	0.280353	0.037993	0.941484
278	C	0.265823	0.490494	0.773779
279	O	0.276653	0.468965	0.776001
280	H	0.242181	0.480112	0.786282
281	H	0.280076	0.509867	0.796553
282	H	0.274599	0.461907	0.808029
283	C	0.055816	0.280785	0.686136
284	N	0.040257	0.271553	0.97875
285	C	0.509028	0.256254	0.973707
286	C	0.489775	0.248518	0.679479
287	N	0.505402	0.258146	0.719977
288	C	0.036689	0.273641	0.725906
289	H	0.500128	0.250037	0.941419
290	C	0.047639	0.28293	0.773721
291	O	0.069186	0.31528	0.776005
292	H	0.058004	0.269643	0.786176
293	H	0.028268	0.277803	0.796505
294	H	0.076248	0.320253	0.808036
295	N	0.189543	0.848588	0.012034
296	C	0.206806	0.832618	0.013584
297	C	0.205513	0.88182	0.013587
298	C	0.156307	0.831321	0.013553
299	C	0.140363	0.809774	0.048869
300	C	0.107792	0.792852	0.050402
301	C	0.089274	0.797397	0.017967
302	C	0.105536	0.818736	0.982192
303	C	0.138138	0.83513	0.979876
304	C	0.228281	0.83816	0.048987
305	C	0.245185	0.822495	0.050565
306	C	0.240719	0.799501	0.018048
307	C	0.219466	0.794498	0.982178
308	C	0.203072	0.810705	0.979839
309	C	0.227472	0.900002	0.979897
310	C	0.243671	0.932603	0.982233
311	C	0.238606	0.948852	0.018035
312	C	0.215558	0.930324	0.05048
313	C	0.199911	0.897753	0.048926
314	H	0.261607	0.828912	0.0754
315	H	0.232204	0.854291	0.073587
316	H	0.187836	0.806045	0.953523
317	H	0.215306	0.778431	0.957329
318	H	0.152562	0.805773	0.073392
319	H	0.097782	0.776366	0.075147
320	H	0.232183	0.889427	0.95364
321	H	0.259785	0.94451	0.957443
322	H	0.209108	0.940323	0.075278
323	H	0.183746	0.885544	0.073485
324	H	0.148723	0.850427	0.95363
325	H	0.093635	0.822958	0.957412
326	N	0.356205	0.681924	0.012563
327	C	0.339596	0.698419	0.012478
328	C	0.339709	0.648818	0.012474
329	C	0.389308	0.698532	0.012457
330	C	0.406225	0.714386	0.972996
331	C	0.438848	0.730531	0.972811
332	C	0.456316	0.731958	0.012172
333	C	0.438955	0.716232	0.051776
334	C	0.406339	0.699762	0.051861
335	C	0.323763	0.699513	0.973013
336	C	0.307615	0.715988	0.972855
337	C	0.306179	0.732006	0.012234
338	C	0.321888	0.730344	0.051841
339	C	0.33835	0.71419	0.051907
340	C	0.323908	0.631795	0.051883
341	C	0.307763	0.59918	0.051816
342	C	0.306125	0.581809	0.01222
343	C	0.322171	0.59927	0.972859
344	C	0.338644	0.631892	0.97302
345	H	0.296297	0.715548	0.943425
346	H	0.324041	0.688277	0.943844
347	H	0.349433	0.713845	0.081206
348	H	0.321953	0.741447	0.081365
349	H	0.394703	0.714124	0.943847
350	H	0.449716	0.741881	0.943397
351	H	0.324238	0.643223	0.081176
352	H	0.296634	0.588142	0.081325
353	H	0.322637	0.588395	0.943438
354	H	0.349899	0.643407	0.943864
355	H	0.394918	0.688669	0.08116
356	H	0.45	0.716154	0.081286
357	C	0.257337	0.78266	0.019555
358	N	0.266666	0.776431	0.312177
359	C	0.281979	0.760517	0.307131
360	C	0.289624	0.748909	0.01289
361	N	0.279904	0.754811	0.053377
362	C	0.264392	0.770587	0.059306
363	H	0.288274	0.75791	0.274855
364	C	0.254985	0.772131	0.107092
365	O	0.222625	0.761302	0.10922
366	H	0.26823	0.795756	0.119675
367	H	0.26007	0.757843	0.12985
368	H	0.217572	0.76331	0.14124
369	C	0.255434	0.982312	0.019542
370	N	0.261762	0.997869	0.312152
371	C	0.277706	0.529095	0.307102
372	C	0.28922	0.548351	0.012873
373	N	0.283232	0.532727	0.05337
374	C	0.267431	0.001441	0.059305
375	H	0.280354	0.537995	0.274817
376	C	0.265823	0.990493	0.10711
377	O	0.276653	0.968967	0.109333
378	H	0.24218	0.980111	0.119615
379	H	0.280077	0.009869	0.129885
380	H	0.2746	0.961906	0.14136
381	C	0.055815	0.780786	0.01947
382	N	0.040257	0.771555	0.312081
383	C	0.509029	0.756256	0.30704
384	C	0.489776	0.74852	0.012814
385	N	0.505402	0.758145	0.053309
386	C	0.036689	0.773643	0.059237
387	H	0.500128	0.750038	0.274751
388	C	0.047639	0.78293	0.107052
389	O	0.069187	0.815282	0.109336
390	H	0.058002	0.769642	0.119509
391	H	0.028268	0.777804	0.129839
392	H	0.076247	0.820252	0.141367
393	N	0.189543	0.848588	0.345368
394	C	0.206806	0.832618	0.346913
395	C	0.205513	0.88182	0.34692
396	C	0.156307	0.831321	0.346886
397	C	0.140363	0.809774	0.382204
398	C	0.107792	0.792852	0.383736
399	C	0.089274	0.797397	0.3513
400	C	0.105536	0.818736	0.315525
401	C	0.138138	0.83513	0.313207
402	C	0.228281	0.83816	0.382321
403	C	0.245185	0.822495	0.383898
404	C	0.240719	0.799501	0.351382
405	C	0.219466	0.794498	0.315509
406	C	0.203072	0.810705	0.31317
407	C	0.227472	0.900002	0.313229
408	C	0.243671	0.932603	0.315564
409	C	0.238606	0.948852	0.351369
410	C	0.215558	0.930324	0.383815
411	C	0.199911	0.897753	0.382259
412	H	0.261607	0.828912	0.408732
413	H	0.232204	0.854291	0.406922
414	H	0.187836	0.806045	0.286855
415	H	0.215306	0.778431	0.290663
416	H	0.152562	0.805773	0.406726
417	H	0.097782	0.776366	0.408482
418	H	0.232183	0.889427	0.286971
419	H	0.259785	0.94451	0.290775
420	H	0.209108	0.940323	0.408612
421	H	0.183746	0.885544	0.406819
422	H	0.148723	0.850427	0.286962
423	H	0.093635	0.822958	0.290744
424	N	0.356205	0.681924	0.345897
425	C	0.339596	0.698419	0.345811
426	C	0.339709	0.648818	0.345804
427	C	0.389308	0.698532	0.34579
428	C	0.406225	0.714386	0.306327
429	C	0.438848	0.730531	0.306144
430	C	0.456316	0.731958	0.345502
431	C	0.438955	0.716232	0.38511
432	C	0.406339	0.699762	0.385196
433	C	0.323763	0.699513	0.306345
434	C	0.307615	0.715988	0.306187
435	C	0.306179	0.732006	0.345567
436	C	0.321888	0.730344	0.385175
437	C	0.33835	0.71419	0.385241
438	C	0.323908	0.631795	0.385217
439	C	0.307763	0.59918	0.385151
440	C	0.306125	0.581809	0.345553
441	C	0.322171	0.59927	0.30619
442	C	0.338644	0.631892	0.306352
443	H	0.296297	0.715548	0.276758
444	H	0.324041	0.688277	0.277178
445	H	0.349433	0.713845	0.414541
446	H	0.321953	0.741447	0.414699
447	H	0.394703	0.714124	0.277178
448	H	0.449716	0.741881	0.276729
449	H	0.324238	0.643223	0.41451
450	H	0.296634	0.588142	0.414658
451	H	0.322637	0.588395	0.276772
452	H	0.349899	0.643407	0.277198
453	H	0.394918	0.688669	0.414493
454	H	0.45	0.716154	0.41462
455	C	0.257337	0.78266	0.35289
456	N	0.266666	0.776431	0.645511
457	C	0.281979	0.760517	0.640465
458	C	0.289624	0.748909	0.346223
459	N	0.279904	0.754811	0.386711
460	C	0.264392	0.770587	0.39264
461	H	0.288274	0.75791	0.60819
462	C	0.254985	0.772131	0.440427
463	O	0.222625	0.761302	0.442553
464	H	0.26823	0.795756	0.453009
465	H	0.26007	0.757843	0.463183
466	H	0.217572	0.76331	0.474574
467	C	0.255434	0.982312	0.352877
468	N	0.261762	0.997869	0.645487
469	C	0.277706	0.529095	0.640437
470	C	0.28922	0.548351	0.346206
471	N	0.283232	0.532727	0.386704
472	C	0.267431	0.001441	0.39264
473	H	0.280354	0.537995	0.608152
474	C	0.265823	0.990493	0.440444
475	O	0.276653	0.968967	0.442666
476	H	0.24218	0.980111	0.452947
477	H	0.280077	0.009869	0.463218
478	H	0.2746	0.961906	0.474694
479	C	0.055815	0.780786	0.352804
480	N	0.040257	0.771555	0.645415
481	C	0.509029	0.756256	0.640372
482	C	0.489776	0.74852	0.346147
483	N	0.505402	0.758145	0.386642
484	C	0.036689	0.773643	0.392571
485	H	0.500128	0.750038	0.608084
486	C	0.047639	0.78293	0.440385
487	O	0.069187	0.815282	0.44267
488	H	0.058002	0.769642	0.452844
489	H	0.028268	0.777804	0.463173
490	H	0.076247	0.820252	0.474701
491	N	0.189543	0.848588	0.678699
492	C	0.206806	0.832618	0.680249
493	C	0.205513	0.88182	0.680255
494	C	0.156307	0.831321	0.680218
495	C	0.140363	0.809774	0.715536
496	C	0.107792	0.792852	0.717071
497	C	0.089274	0.797397	0.684635
498	C	0.105536	0.818736	0.64886
499	C	0.138138	0.83513	0.646541
500	C	0.228281	0.83816	0.715656
501	C	0.245185	0.822495	0.717233
502	C	0.240719	0.799501	0.684717
503	C	0.219466	0.794498	0.648843
504	C	0.203072	0.810705	0.646503
505	C	0.227472	0.900002	0.646562
506	C	0.243671	0.932603	0.648898
507	C	0.238606	0.948852	0.684704
508	C	0.215558	0.930324	0.717147
509	C	0.199911	0.897753	0.715594
510	H	0.261607	0.828912	0.742067
511	H	0.232204	0.854291	0.740254
512	H	0.187836	0.806045	0.620188
513	H	0.215306	0.778431	0.623998
514	H	0.152562	0.805773	0.740058
515	H	0.097782	0.776366	0.741813
516	H	0.232183	0.889427	0.620305
517	H	0.259785	0.94451	0.624108
518	H	0.209108	0.940323	0.741947
519	H	0.183746	0.885544	0.740151
520	H	0.148723	0.850427	0.620298
521	H	0.093635	0.822958	0.624077
522	N	0.356205	0.681924	0.679228
523	C	0.339596	0.698419	0.679146
524	C	0.339709	0.648818	0.679139
525	C	0.389308	0.698532	0.679122
526	C	0.406225	0.714386	0.639661
527	C	0.438848	0.730531	0.639479
528	C	0.456316	0.731958	0.678837
529	C	0.438955	0.716232	0.718445
530	C	0.406339	0.699762	0.718528
531	C	0.323763	0.699513	0.639678
532	C	0.307615	0.715988	0.63952
533	C	0.306179	0.732006	0.678899
534	C	0.321888	0.730344	0.718507
535	C	0.33835	0.71419	0.718576
536	C	0.323908	0.631795	0.718552
537	C	0.307763	0.59918	0.718483
538	C	0.306125	0.581809	0.678885
539	C	0.322171	0.59927	0.639524
540	C	0.338644	0.631892	0.639685
541	H	0.296297	0.715548	0.610093
542	H	0.324041	0.688277	0.610512
543	H	0.349433	0.713845	0.747876
544	H	0.321953	0.741447	0.748034
545	H	0.394703	0.714124	0.610512
546	H	0.449716	0.741881	0.610062
547	H	0.324238	0.643223	0.747845
548	H	0.296634	0.588142	0.747993
549	H	0.322637	0.588395	0.610107
550	H	0.349899	0.643407	0.610533
551	H	0.394918	0.688669	0.747828
552	H	0.45	0.716154	0.747955
553	C	0.257337	0.78266	0.686222
554	N	0.266666	0.776431	0.978846
555	C	0.281979	0.760517	0.9738
556	C	0.289624	0.748909	0.679558
557	N	0.279904	0.754811	0.720046
558	C	0.264392	0.770587	0.725975
559	H	0.288274	0.75791	0.941522
560	C	0.254985	0.772131	0.773762
561	O	0.222625	0.761302	0.775888
562	H	0.26823	0.795756	0.786344
563	H	0.26007	0.757843	0.796518
564	H	0.217572	0.76331	0.807909
565	C	0.255434	0.982312	0.686212
566	N	0.261762	0.997869	0.978822
567	C	0.277706	0.529095	0.973769
568	C	0.28922	0.548351	0.679541
569	N	0.283232	0.532727	0.720039
570	C	0.267431	0.001441	0.725971
571	H	0.280354	0.537995	0.941484
572	C	0.265823	0.990493	0.773779
573	O	0.276653	0.968967	0.776001
574	H	0.24218	0.980111	0.786282
575	H	0.280077	0.009869	0.796553
576	H	0.2746	0.961906	0.808029
577	C	0.055815	0.780786	0.686136
578	N	0.040257	0.771555	0.97875
579	C	0.509029	0.756256	0.973707
580	C	0.489776	0.74852	0.679479
581	N	0.505402	0.758145	0.719977
582	C	0.036689	0.773643	0.725906
583	H	0.500128	0.750038	0.941419
584	C	0.047639	0.78293	0.773721
585	O	0.069187	0.815282	0.776005
586	H	0.058002	0.769642	0.786176
587	H	0.028268	0.777804	0.796505
588	H	0.076247	0.820252	0.808036
589	N	0.689542	0.348586	0.012034
590	C	0.706808	0.332619	0.013584
591	C	0.705512	0.381821	0.013587
592	C	0.656308	0.331321	0.013553
593	C	0.640361	0.309772	0.048869
594	C	0.607793	0.292853	0.050402
595	C	0.589276	0.297397	0.017967
596	C	0.605536	0.318734	0.982192
597	C	0.638138	0.33513	0.979876
598	C	0.728279	0.338158	0.048987
599	C	0.745183	0.322493	0.050565
600	C	0.740718	0.299501	0.018048
601	C	0.719467	0.294498	0.982178
602	C	0.703074	0.310706	0.979839
603	C	0.727471	0.4	0.979897
604	C	0.743672	0.432604	0.982233
605	C	0.738605	0.448852	0.018035
606	C	0.715556	0.430322	0.05048
607	C	0.699912	0.397754	0.048926
608	H	0.761606	0.328911	0.075399
609	H	0.732203	0.354292	0.073587
610	H	0.687836	0.306044	0.953523
611	H	0.715304	0.27843	0.957329
612	H	0.65256	0.305772	0.073392
613	H	0.597782	0.276367	0.075147
614	H	0.732183	0.389425	0.95364
615	H	0.759786	0.444511	0.957443
616	H	0.709107	0.440324	0.075278
617	H	0.683744	0.385542	0.073485
618	H	0.648722	0.350427	0.95363
619	H	0.593636	0.322958	0.957412
620	N	0.856204	0.181922	0.012563
621	C	0.839595	0.198418	0.012478
622	C	0.839709	0.148817	0.012474
623	C	0.889308	0.198532	0.012457
624	C	0.906225	0.214386	0.972996
625	C	0.938848	0.230529	0.972811
626	C	0.956317	0.231958	0.012172
627	C	0.938953	0.216231	0.051776
628	C	0.906339	0.199762	0.051861
629	C	0.823762	0.199512	0.973013
630	C	0.807615	0.215986	0.972855
631	C	0.806179	0.232004	0.012234
632	C	0.821886	0.230343	0.051841
633	C	0.838349	0.214191	0.051907
634	C	0.823908	0.131794	0.051883
635	C	0.807764	0.099179	0.051816
636	C	0.806126	0.08181	0.01222
637	C	0.822172	0.099269	0.972859
638	C	0.838643	0.131892	0.97302
639	H	0.796295	0.215547	0.943425
640	H	0.824041	0.188277	0.943844
641	H	0.849433	0.213843	0.081206
642	H	0.821953	0.241446	0.081365
643	H	0.894703	0.214123	0.943847
644	H	0.949716	0.241879	0.943397
645	H	0.824237	0.143222	0.081176
646	H	0.796633	0.088141	0.081325
647	H	0.822636	0.088396	0.943438
648	H	0.849899	0.143407	0.943864
649	H	0.894917	0.188668	0.08116
650	H	0.949998	0.216152	0.081286
651	C	0.757335	0.282658	0.019555
652	N	0.766666	0.276429	0.312177
653	C	0.78198	0.260517	0.307131
654	C	0.789625	0.24891	0.01289
655	N	0.779903	0.254811	0.053377
656	C	0.76439	0.270585	0.059306
657	H	0.788273	0.257909	0.274855
658	C	0.754984	0.272129	0.107092
659	O	0.722624	0.261301	0.10922
660	H	0.76823	0.295754	0.119675
661	H	0.760068	0.257842	0.12985
662	H	0.717572	0.26331	0.14124
663	C	0.755433	0.482313	0.019542
664	N	0.761762	0.497868	0.312152
665	C	0.777707	0.029095	0.307102
666	C	0.78922	0.04835	0.012873
667	N	0.783233	0.032727	0.05337
668	C	0.767429	0.50144	0.059305
669	H	0.780354	0.037993	0.274817
670	C	0.765824	0.490494	0.10711
671	O	0.776652	0.468965	0.109333
672	H	0.742181	0.480112	0.119615
673	H	0.780075	0.509867	0.129885
674	H	0.774599	0.461907	0.14136
675	C	0.555815	0.280785	0.01947
676	N	0.540257	0.271553	0.312081
677	C	0.009027	0.256254	0.30704
678	C	0.989774	0.248518	0.012814
679	N	0.005401	0.258146	0.053309
680	C	0.536689	0.273641	0.059237
681	H	0.000127	0.250037	0.274751
682	C	0.547638	0.28293	0.107052
683	O	0.569185	0.31528	0.109336
684	H	0.558004	0.269643	0.119509
685	H	0.528267	0.277803	0.129839
686	H	0.576246	0.320253	0.141366
687	N	0.689542	0.348586	0.345368
688	C	0.706808	0.332619	0.346913
689	C	0.705512	0.381821	0.34692
690	C	0.656308	0.331321	0.346886
691	C	0.640361	0.309772	0.382204
692	C	0.607793	0.292853	0.383736
693	C	0.589276	0.297397	0.3513
694	C	0.605536	0.318734	0.315525
695	C	0.638138	0.33513	0.313207
696	C	0.728279	0.338158	0.382321
697	C	0.745183	0.322493	0.383898
698	C	0.740718	0.299501	0.351382
699	C	0.719467	0.294498	0.315509
700	C	0.703074	0.310706	0.31317
701	C	0.727471	0.4	0.313229
702	C	0.743672	0.432604	0.315564
703	C	0.738605	0.448852	0.351369
704	C	0.715556	0.430322	0.383815
705	C	0.699912	0.397754	0.382259
706	H	0.761606	0.328911	0.408732
707	H	0.732203	0.354292	0.406922
708	H	0.687836	0.306044	0.286855
709	H	0.715304	0.27843	0.290663
710	H	0.65256	0.305772	0.406726
711	H	0.597782	0.276367	0.408482
712	H	0.732183	0.389425	0.286971
713	H	0.759786	0.444511	0.290775
714	H	0.709107	0.440324	0.408612
715	H	0.683744	0.385542	0.406819
716	H	0.648722	0.350427	0.286962
717	H	0.593636	0.322958	0.290744
718	N	0.856204	0.181922	0.345897
719	C	0.839595	0.198418	0.345811
720	C	0.839709	0.148817	0.345804
721	C	0.889308	0.198532	0.34579
722	C	0.906225	0.214386	0.306327
723	C	0.938848	0.230529	0.306144
724	C	0.956317	0.231958	0.345502
725	C	0.938953	0.216231	0.38511
726	C	0.906339	0.199762	0.385196
727	C	0.823762	0.199512	0.306345
728	C	0.807615	0.215986	0.306187
729	C	0.806179	0.232004	0.345567
730	C	0.821886	0.230343	0.385175
731	C	0.838349	0.214191	0.385241
732	C	0.823908	0.131794	0.385217
733	C	0.807764	0.099179	0.385151
734	C	0.806126	0.08181	0.345553
735	C	0.822172	0.099269	0.30619
736	C	0.838643	0.131892	0.306352
737	H	0.796295	0.215547	0.276758
738	H	0.824041	0.188277	0.277178
739	H	0.849433	0.213843	0.414541
740	H	0.821953	0.241446	0.414699
741	H	0.894703	0.214123	0.277178
742	H	0.949716	0.241879	0.276729
743	H	0.824237	0.143222	0.41451
744	H	0.796633	0.088141	0.414658
745	H	0.822636	0.088396	0.276772
746	H	0.849899	0.143407	0.277198
747	H	0.894917	0.188668	0.414493
748	H	0.949998	0.216152	0.41462
749	C	0.757335	0.282658	0.35289
750	N	0.766666	0.276429	0.645511
751	C	0.78198	0.260517	0.640465
752	C	0.789625	0.24891	0.346223
753	N	0.779903	0.254811	0.386711
754	C	0.76439	0.270585	0.39264
755	H	0.788273	0.257909	0.60819
756	C	0.754984	0.272129	0.440427
757	O	0.722624	0.261301	0.442553
758	H	0.76823	0.295754	0.453009
759	H	0.760068	0.257842	0.463183
760	H	0.717572	0.26331	0.474574
761	C	0.755433	0.482313	0.352877
762	N	0.761762	0.497868	0.645487
763	C	0.777707	0.029095	0.640437
764	C	0.78922	0.04835	0.346206
765	N	0.783233	0.032727	0.386704
766	C	0.767429	0.50144	0.39264
767	H	0.780354	0.037993	0.608152
768	C	0.765824	0.490494	0.440444
769	O	0.776652	0.468965	0.442666
770	H	0.742181	0.480112	0.452947
771	H	0.780075	0.509867	0.463218
772	H	0.774599	0.461907	0.474694
773	C	0.555815	0.280785	0.352804
774	N	0.540257	0.271553	0.645415
775	C	0.009027	0.256254	0.640372
776	C	0.989774	0.248518	0.346147
777	N	0.005401	0.258146	0.386642
778	C	0.536689	0.273641	0.392571
779	H	0.000127	0.250037	0.608084
780	C	0.547638	0.28293	0.440385
781	O	0.569185	0.31528	0.44267
782	H	0.558004	0.269643	0.452844
783	H	0.528267	0.277803	0.463173
784	H	0.576246	0.320253	0.474701
785	N	0.689542	0.348586	0.678699
786	C	0.706808	0.332619	0.680249
787	C	0.705512	0.381821	0.680255
788	C	0.656308	0.331321	0.680218
789	C	0.640361	0.309772	0.715536
790	C	0.607793	0.292853	0.717071
791	C	0.589276	0.297397	0.684635
792	C	0.605536	0.318734	0.64886
793	C	0.638138	0.33513	0.646541
794	C	0.728279	0.338158	0.715656
795	C	0.745183	0.322493	0.717233
796	C	0.740718	0.299501	0.684717
797	C	0.719467	0.294498	0.648843
798	C	0.703074	0.310706	0.646503
799	C	0.727471	0.4	0.646562
800	C	0.743672	0.432604	0.648898
801	C	0.738605	0.448852	0.684704
802	C	0.715556	0.430322	0.717147
803	C	0.699912	0.397754	0.715594
804	H	0.761606	0.328911	0.742067
805	H	0.732203	0.354292	0.740254
806	H	0.687836	0.306044	0.620188
807	H	0.715304	0.27843	0.623998
808	H	0.65256	0.305772	0.740058
809	H	0.597782	0.276367	0.741813
810	H	0.732183	0.389425	0.620305
811	H	0.759786	0.444511	0.624108
812	H	0.709107	0.440324	0.741947
813	H	0.683744	0.385542	0.740151
814	H	0.648722	0.350427	0.620298
815	H	0.593636	0.322958	0.624077
816	N	0.856204	0.181922	0.679228
817	C	0.839595	0.198418	0.679146
818	C	0.839709	0.148817	0.679139
819	C	0.889308	0.198532	0.679122
820	C	0.906225	0.214386	0.639661
821	C	0.938848	0.230529	0.639479
822	C	0.956317	0.231958	0.678837
823	C	0.938953	0.216231	0.718445
824	C	0.906339	0.199762	0.718528
825	C	0.823762	0.199512	0.639678
826	C	0.807615	0.215986	0.63952
827	C	0.806179	0.232004	0.678899
828	C	0.821886	0.230343	0.718507
829	C	0.838349	0.214191	0.718576
830	C	0.823908	0.131794	0.718552
831	C	0.807764	0.099179	0.718483
832	C	0.806126	0.08181	0.678885
833	C	0.822172	0.099269	0.639524
834	C	0.838643	0.131892	0.639685
835	H	0.796295	0.215547	0.610093
836	H	0.824041	0.188277	0.610512
837	H	0.849433	0.213843	0.747876
838	H	0.821953	0.241446	0.748034
839	H	0.894703	0.214123	0.610512
840	H	0.949716	0.241879	0.610062
841	H	0.824237	0.143222	0.747845
842	H	0.796633	0.088141	0.747993
843	H	0.822636	0.088396	0.610107
844	H	0.849899	0.143407	0.610533
845	H	0.894917	0.188668	0.747828
846	H	0.949998	0.216152	0.747955
847	C	0.757335	0.282658	0.686222
848	N	0.766666	0.276429	0.978846
849	C	0.78198	0.260517	0.9738
850	C	0.789625	0.24891	0.679558
851	N	0.779903	0.254811	0.720046
852	C	0.76439	0.270585	0.725975
853	H	0.788273	0.257909	0.941522
854	C	0.754984	0.272129	0.773762
855	O	0.722624	0.261301	0.775888
856	H	0.76823	0.295754	0.786344
857	H	0.760068	0.257842	0.796518
858	H	0.717572	0.26331	0.807909
859	C	0.755433	0.482313	0.686212
860	N	0.761762	0.497868	0.978822
861	C	0.777707	0.029095	0.973769
862	C	0.78922	0.04835	0.679541
863	N	0.783233	0.032727	0.720039
864	C	0.767429	0.50144	0.725971
865	H	0.780354	0.037993	0.941484
866	C	0.765824	0.490494	0.773779
867	O	0.776652	0.468965	0.776001
868	H	0.742181	0.480112	0.786282
869	H	0.780075	0.509867	0.796553
870	H	0.774599	0.461907	0.808029
871	C	0.555815	0.280785	0.686136
872	N	0.540257	0.271553	0.97875
873	C	0.009027	0.256254	0.973707
874	C	0.989774	0.248518	0.679479
875	N	0.005401	0.258146	0.719977
876	C	0.536689	0.273641	0.725906
877	H	0.000127	0.250037	0.941419
878	C	0.547638	0.28293	0.773721
879	O	0.569185	0.31528	0.776005
880	H	0.558004	0.269643	0.786176
881	H	0.528267	0.277803	0.796505
882	H	0.576246	0.320253	0.808036
883	N	0.689542	0.848588	0.012034
884	C	0.706805	0.832618	0.013584
885	C	0.705512	0.88182	0.013587
886	C	0.656308	0.831321	0.013553
887	C	0.640362	0.809774	0.048869
888	C	0.607793	0.792852	0.050402
889	C	0.589274	0.797397	0.017967
890	C	0.605536	0.818736	0.982192
891	C	0.638137	0.83513	0.979876
892	C	0.72828	0.83816	0.048987
893	C	0.745184	0.822495	0.050565
894	C	0.740718	0.799501	0.018048
895	C	0.719467	0.794498	0.982178
896	C	0.703073	0.810705	0.979839
897	C	0.727471	0.900002	0.979897
898	C	0.74367	0.932603	0.982233
899	C	0.738605	0.948852	0.018035
900	C	0.715557	0.930324	0.05048
901	C	0.699912	0.897753	0.048926
902	H	0.761607	0.828912	0.0754
903	H	0.732203	0.854291	0.073587
904	H	0.687837	0.806045	0.953523
905	H	0.715305	0.778431	0.957329
906	H	0.652561	0.805773	0.073392
907	H	0.597781	0.776366	0.075147
908	H	0.732182	0.889427	0.95364
909	H	0.759786	0.94451	0.957443
910	H	0.709107	0.940323	0.075278
911	H	0.683745	0.885544	0.073485
912	H	0.648722	0.850427	0.95363
913	H	0.593635	0.822958	0.957412
914	N	0.856205	0.681924	0.012563
915	C	0.839596	0.698419	0.012478
916	C	0.839708	0.648818	0.012474
917	C	0.889307	0.698532	0.012457
918	C	0.906225	0.714386	0.972996
919	C	0.938847	0.730531	0.972811
920	C	0.956314	0.731958	0.012172
921	C	0.938954	0.716232	0.051776
922	C	0.906339	0.699762	0.051861
923	C	0.823762	0.699513	0.973013
924	C	0.807614	0.715988	0.972855
925	C	0.806179	0.732006	0.012234
926	C	0.821887	0.730344	0.051841
927	C	0.838349	0.71419	0.051907
928	C	0.823908	0.631795	0.051883
929	C	0.807762	0.59918	0.051816
930	C	0.806124	0.581809	0.01222
931	C	0.82217	0.59927	0.972859
932	C	0.838643	0.631892	0.97302
933	H	0.796296	0.715548	0.943425
934	H	0.824041	0.688277	0.943844
935	H	0.849432	0.713845	0.081206
936	H	0.821952	0.741447	0.081365
937	H	0.894703	0.714124	0.943847
938	H	0.949715	0.741881	0.943397
939	H	0.824237	0.643223	0.081176
940	H	0.796633	0.588142	0.081325
941	H	0.822636	0.588395	0.943438
942	H	0.849899	0.643407	0.943864
943	H	0.894917	0.688669	0.08116
944	H	0.949999	0.716154	0.081286
945	C	0.757336	0.78266	0.019555
946	N	0.766665	0.776431	0.312177
947	C	0.781979	0.760517	0.307131
948	C	0.789625	0.748909	0.01289
949	N	0.779903	0.754811	0.053377
950	C	0.764391	0.770587	0.059306
951	H	0.788274	0.75791	0.274855
952	C	0.754985	0.772131	0.107092
953	O	0.722625	0.761302	0.10922
954	H	0.768229	0.795756	0.119675
955	H	0.760069	0.757843	0.12985
956	H	0.717571	0.76331	0.14124
957	C	0.755433	0.982312	0.019542
958	N	0.761763	0.997869	0.312152
959	C	0.777705	0.529095	0.307102
960	C	0.789219	0.548351	0.012873
961	N	0.783233	0.532727	0.05337
962	C	0.76743	0.001441	0.059305
963	H	0.780355	0.537995	0.274817
964	C	0.765822	0.990493	0.10711
965	O	0.776652	0.968967	0.109333
966	H	0.742181	0.980111	0.119615
967	H	0.780076	0.009869	0.129885
968	H	0.774599	0.961906	0.14136
969	C	0.555816	0.780786	0.01947
970	N	0.540257	0.771555	0.312081
971	C	0.009028	0.756256	0.30704
972	C	0.989775	0.74852	0.012814
973	N	0.005401	0.758145	0.053309
974	C	0.536689	0.773643	0.059237
975	H	0.000128	0.750038	0.274751
976	C	0.547638	0.78293	0.107052
977	O	0.569186	0.815282	0.109336
978	H	0.558003	0.769642	0.119509
979	H	0.528268	0.777804	0.129839
980	H	0.576246	0.820252	0.141367
981	N	0.689542	0.848588	0.345368
982	C	0.706805	0.832618	0.346913
983	C	0.705512	0.88182	0.34692
984	C	0.656308	0.831321	0.346886
985	C	0.640362	0.809774	0.382204
986	C	0.607793	0.792852	0.383736
987	C	0.589274	0.797397	0.3513
988	C	0.605536	0.818736	0.315525
989	C	0.638137	0.83513	0.313207
990	C	0.72828	0.83816	0.382321
991	C	0.745184	0.822495	0.383898
992	C	0.740718	0.799501	0.351382
993	C	0.719467	0.794498	0.315509
994	C	0.703073	0.810705	0.31317
995	C	0.727471	0.900002	0.313229
996	C	0.74367	0.932603	0.315564
997	C	0.738605	0.948852	0.351369
998	C	0.715557	0.930324	0.383815
999	C	0.699912	0.897753	0.382259
1000	H	0.761607	0.828912	0.408732
1001	H	0.732203	0.854291	0.406922
1002	H	0.687837	0.806045	0.286855
1003	H	0.715305	0.778431	0.290663
1004	H	0.652561	0.805773	0.406726
1005	H	0.597781	0.776366	0.408482
1006	H	0.732182	0.889427	0.286971
1007	H	0.759786	0.94451	0.290775
1008	H	0.709107	0.940323	0.408612
1009	H	0.683745	0.885544	0.406819
1010	H	0.648722	0.850427	0.286962
1011	H	0.593635	0.822958	0.290744
1012	N	0.856205	0.681924	0.345897
1013	C	0.839596	0.698419	0.345811
1014	C	0.839708	0.648818	0.345804
1015	C	0.889307	0.698532	0.34579
1016	C	0.906225	0.714386	0.306327
1017	C	0.938847	0.730531	0.306144
1018	C	0.956314	0.731958	0.345502
1019	C	0.938954	0.716232	0.38511
1020	C	0.906339	0.699762	0.385196
1021	C	0.823762	0.699513	0.306345
1022	C	0.807614	0.715988	0.306187
1023	C	0.806179	0.732006	0.345567
1024	C	0.821887	0.730344	0.385175
1025	C	0.838349	0.71419	0.385241
1026	C	0.823908	0.631795	0.385217
1027	C	0.807762	0.59918	0.385151
1028	C	0.806124	0.581809	0.345553
1029	C	0.82217	0.59927	0.30619
1030	C	0.838643	0.631892	0.306352
1031	H	0.796296	0.715548	0.276758
1032	H	0.824041	0.688277	0.277178
1033	H	0.849432	0.713845	0.414541
1034	H	0.821952	0.741447	0.414699
1035	H	0.894703	0.714124	0.277178
1036	H	0.949715	0.741881	0.276729
1037	H	0.824237	0.643223	0.41451
1038	H	0.796633	0.588142	0.414658
1039	H	0.822636	0.588395	0.276772
1040	H	0.849899	0.643407	0.277198
1041	H	0.894917	0.688669	0.414493
1042	H	0.949999	0.716154	0.41462
1043	C	0.757336	0.78266	0.35289
1044	N	0.766665	0.776431	0.645511
1045	C	0.781979	0.760517	0.640465
1046	C	0.789625	0.748909	0.346223
1047	N	0.779903	0.754811	0.386711
1048	C	0.764391	0.770587	0.39264
1049	H	0.788274	0.75791	0.60819
1050	C	0.754985	0.772131	0.440427
1051	O	0.722625	0.761302	0.442553
1052	H	0.768229	0.795756	0.453009
1053	H	0.760069	0.757843	0.463183
1054	H	0.717571	0.76331	0.474574
1055	C	0.755433	0.982312	0.352877
1056	N	0.761763	0.997869	0.645487
1057	C	0.777705	0.529095	0.640437
1058	C	0.789219	0.548351	0.346206
1059	N	0.783233	0.532727	0.386704
1060	C	0.76743	0.001441	0.39264
1061	H	0.780355	0.537995	0.608152
1062	C	0.765822	0.990493	0.440444
1063	O	0.776652	0.968967	0.442666
1064	H	0.742181	0.980111	0.452947
1065	H	0.780076	0.009869	0.463218
1066	H	0.774599	0.961906	0.474694
1067	C	0.555816	0.780786	0.352804
1068	N	0.540257	0.771555	0.645415
1069	C	0.009028	0.756256	0.640372
1070	C	0.989775	0.74852	0.346147
1071	N	0.005401	0.758145	0.386642
1072	C	0.536689	0.773643	0.392571
1073	H	0.000128	0.750038	0.608084
1074	C	0.547638	0.78293	0.440385
1075	O	0.569186	0.815282	0.44267
1076	H	0.558003	0.769642	0.452844
1077	H	0.528268	0.777804	0.463173
1078	H	0.576246	0.820252	0.474701
1079	N	0.689542	0.848588	0.678699
1080	C	0.706805	0.832618	0.680249
1081	C	0.705512	0.88182	0.680255
1082	C	0.656308	0.831321	0.680218
1083	C	0.640362	0.809774	0.715536
1084	C	0.607793	0.792852	0.717071
1085	C	0.589274	0.797397	0.684635
1086	C	0.605536	0.818736	0.64886
1087	C	0.638137	0.83513	0.646541
1088	C	0.72828	0.83816	0.715656
1089	C	0.745184	0.822495	0.717233
1090	C	0.740718	0.799501	0.684717
1091	C	0.719467	0.794498	0.648843
1092	C	0.703073	0.810705	0.646503
1093	C	0.727471	0.900002	0.646562
1094	C	0.74367	0.932603	0.648898
1095	C	0.738605	0.948852	0.684704
1096	C	0.715557	0.930324	0.717147
1097	C	0.699912	0.897753	0.715594
1098	H	0.761607	0.828912	0.742067
1099	H	0.732203	0.854291	0.740254
1100	H	0.687837	0.806045	0.620188
1101	H	0.715305	0.778431	0.623998
1102	H	0.652561	0.805773	0.740058
1103	H	0.597781	0.776366	0.741813
1104	H	0.732182	0.889427	0.620305
1105	H	0.759786	0.94451	0.624108
1106	H	0.709107	0.940323	0.741947
1107	H	0.683745	0.885544	0.740151
1108	H	0.648722	0.850427	0.620298
1109	H	0.593635	0.822958	0.624077
1110	N	0.856205	0.681924	0.679228
1111	C	0.839596	0.698419	0.679146
1112	C	0.839708	0.648818	0.679139
1113	C	0.889307	0.698532	0.679122
1114	C	0.906225	0.714386	0.639661
1115	C	0.938847	0.730531	0.639479
1116	C	0.956314	0.731958	0.678837
1117	C	0.938954	0.716232	0.718445
1118	C	0.906339	0.699762	0.718528
1119	C	0.823762	0.699513	0.639678
1120	C	0.807614	0.715988	0.63952
1121	C	0.806179	0.732006	0.678899
1122	C	0.821887	0.730344	0.718507
1123	C	0.838349	0.71419	0.718576
1124	C	0.823908	0.631795	0.718552
1125	C	0.807762	0.59918	0.718483
1126	C	0.806124	0.581809	0.678885
1127	C	0.82217	0.59927	0.639524
1128	C	0.838643	0.631892	0.639685
1129	H	0.796296	0.715548	0.610093
1130	H	0.824041	0.688277	0.610512
1131	H	0.849432	0.713845	0.747876
1132	H	0.821952	0.741447	0.748034
1133	H	0.894703	0.714124	0.610512
1134	H	0.949715	0.741881	0.610062
1135	H	0.824237	0.643223	0.747845
1136	H	0.796633	0.588142	0.747993
1137	H	0.822636	0.588395	0.610107
1138	H	0.849899	0.643407	0.610533
1139	H	0.894917	0.688669	0.747828
1140	H	0.949999	0.716154	0.747955
1141	C	0.757336	0.78266	0.686222
1142	N	0.766665	0.776431	0.978846
1143	C	0.781979	0.760517	0.9738
1144	C	0.789625	0.748909	0.679558
1145	N	0.779903	0.754811	0.720046
1146	C	0.764391	0.770587	0.725975
1147	H	0.788274	0.75791	0.941522
1148	C	0.754985	0.772131	0.773762
1149	O	0.722625	0.761302	0.775888
1150	H	0.768229	0.795756	0.786344
1151	H	0.760069	0.757843	0.796518
1152	H	0.717571	0.76331	0.807909
1153	C	0.755433	0.982312	0.686212
1154	N	0.761763	0.997869	0.978822
1155	C	0.777705	0.529095	0.973769
1156	C	0.789219	0.548351	0.679541
1157	N	0.783233	0.532727	0.720039
1158	C	0.76743	0.001441	0.725971
1159	H	0.780355	0.537995	0.941484
1160	C	0.765822	0.990493	0.773779
1161	O	0.776652	0.968967	0.776001
1162	H	0.742181	0.980111	0.786282
1163	H	0.780076	0.009869	0.796553
1164	H	0.774599	0.961906	0.808029
1165	C	0.555816	0.780786	0.686136
1166	N	0.540257	0.771555	0.97875
1167	C	0.009028	0.756256	0.973707
1168	C	0.989775	0.74852	0.679479
1169	N	0.005401	0.758145	0.719977
1170	C	0.536689	0.773643	0.725906
1171	H	0.000128	0.750038	0.941419
1172	C	0.547638	0.78293	0.773721
1173	O	0.569186	0.815282	0.776005
1174	H	0.558003	0.769642	0.786176
1175	H	0.528268	0.777804	0.796505
1176	H	0.576246	0.820252	0.808036
