data_C432H360N144O72_2018-02-15_10:32:46
#******************************************
#
# CIF file created by Zeo++
# Zeo++ is an open source package to
# analyze microporous materials
#
#*******************************************

_cell_length_a		43.6029   
_cell_length_b		43.6029   
_cell_length_c		30.0976   
_cell_angle_alpha		90   
_cell_angle_beta		90   
_cell_angle_gamma		120   

_symmetry_space_group_name_H-M		'P1'
_symmetry_Int_Tables_number		1
_symmetry_cell_setting		Monoclinic

loop_
_symmetry_equiv_pos_as_xyz
'+x,+y,+z'

loop_
_atom_site_label
_atom_site_type_symbol
_atom_site_fract_x
_atom_site_fract_y
_atom_site_fract_z
1	C	0.17573	0.368881	0.95741
2	C	0.139334	0.342863	0.957237
3	C	0.127053	0.306034	0.957336
4	C	0.153076	0.295661	0.95721
5	C	0.189907	0.32021	0.290691
6	C	0.200287	0.35661	0.957207
7	H	0.144725	0.269337	0.959769
8	H	0.226603	0.374572	0.959875
9	H	0.121361	0.351212	0.959815
10	C	0.186513	0.405374	0.962284
11	C	0.215619	0.309429	0.295568
12	C	0.09056	0.280314	0.962177
13	O	0.249552	0.334817	0.970952
14	O	0.161126	0.413914	0.971029
15	O	0.082014	0.246378	0.970862
16	C	0.319445	0.12791	0.040712
17	C	0.355841	0.153915	0.041031
18	C	0.368057	0.190729	0.040746
19	C	0.342043	0.201109	0.041006
20	C	0.305228	0.176518	0.37408
21	C	0.294846	0.140122	0.041011
22	H	0.350356	0.227427	0.038287
23	H	0.268526	0.122122	0.038289
24	H	0.373844	0.145604	0.03828
25	C	0.308646	0.09151	0.034906
26	C	0.279625	0.18731	0.368239
27	C	0.404451	0.216335	0.0349
28	O	0.245909	0.162012	0.024992
29	O	0.333943	0.08309	0.024989
30	O	0.412862	0.250041	0.024947
31	C	0.19572	0.200414	0.268998
32	C	0.221547	0.226604	0.300644
33	H	0.209201	0.19078	0.247377
34	H	0.183123	0.211018	0.247649
35	H	0.175147	0.178013	0.287445
36	N	0.241431	0.215824	0.323179
37	C	0.267513	0.235209	0.019628
38	C	0.274853	0.270389	0.026811
39	C	0.302085	0.295727	0.05777
40	H	0.29689	0.284623	0.091244
41	H	0.302123	0.320787	0.058863
42	H	0.328279	0.301225	0.047141
43	N	0.254749	0.281122	0.004737
44	C	0.228458	0.26164	0.308508
45	N	0.286681	0.221497	0.038087
46	H	0.307564	0.237759	0.054794
47	N	0.208695	0.275301	0.291752
48	H	0.187096	0.258907	0.27664
49	C	0.295516	0.494492	0.268999
50	C	0.269337	0.494134	0.300658
51	H	0.305165	0.517619	0.247397
52	H	0.284897	0.471301	0.247632
53	H	0.317909	0.496293	0.287437
54	N	0.280121	0.0248	0.323191
55	C	0.260737	0.031498	0.019642
56	C	0.225563	0.003657	0.026843
57	C	0.200241	0.005544	0.057837
58	H	0.211366	0.011453	0.091301
59	H	0.175188	0.98052	0.058945
60	H	0.194733	0.026237	0.047231
61	N	0.214829	0.472824	0.004762
62	C	0.234292	0.466018	0.308498
63	N	0.274461	0.06438	0.038099
64	H	0.258201	0.069005	0.054806
65	N	0.22064	0.432579	0.291791
66	H	0.237035	0.427375	0.27668
67	C	0.001454	0.300229	0.268958
68	C	0.0018	0.274374	0.30057
69	H	0.978313	0.286779	0.247371
70	H	0.024636	0.312792	0.247573
71	H	0.999685	0.320824	0.287433
72	N	0.471146	0.254512	0.323135
73	C	0.464456	0.228434	0.019589
74	C	0.49229	0.221084	0.026754
75	C	0.490416	0.193885	0.057754
76	H	0.484532	0.199116	0.091223
77	H	0.515437	0.193846	0.058838
78	H	0.469712	0.16768	0.047173
79	N	0.023119	0.24118	0.004662
80	C	0.02992	0.267449	0.308402
81	N	0.431584	0.209279	0.038074
82	H	0.426965	0.188401	0.05479
83	N	0.063356	0.287239	0.291694
84	H	0.068566	0.308846	0.276596
85	C	0.17573	0.368881	0.290744
86	C	0.139334	0.342863	0.290572
87	C	0.127053	0.306034	0.290671
88	C	0.153076	0.295661	0.290543
89	C	0.189907	0.32021	0.624024
90	C	0.200287	0.35661	0.29054
91	H	0.144725	0.269337	0.293103
92	H	0.226603	0.374572	0.293209
93	H	0.121361	0.351212	0.293148
94	C	0.186513	0.405374	0.295617
95	C	0.215619	0.309429	0.628901
96	C	0.09056	0.280314	0.29551
97	O	0.249552	0.334817	0.304286
98	O	0.161126	0.413914	0.304361
99	O	0.082014	0.246378	0.304198
100	C	0.319445	0.12791	0.374043
101	C	0.355841	0.153915	0.374362
102	C	0.368057	0.190729	0.37408
103	C	0.342043	0.201109	0.374339
104	C	0.305228	0.176518	0.707413
105	C	0.294846	0.140122	0.374346
106	H	0.350356	0.227427	0.371621
107	H	0.268526	0.122122	0.371621
108	H	0.373844	0.145604	0.371615
109	C	0.308646	0.09151	0.368239
110	C	0.279625	0.18731	0.701572
111	C	0.404451	0.216335	0.368232
112	O	0.245909	0.162012	0.358325
113	O	0.333943	0.08309	0.358321
114	O	0.412862	0.250041	0.358281
115	C	0.19572	0.200414	0.602331
116	C	0.221547	0.226604	0.633978
117	H	0.209201	0.19078	0.580711
118	H	0.183123	0.211018	0.58098
119	H	0.175147	0.178013	0.620778
120	N	0.241431	0.215824	0.656511
121	C	0.267513	0.235209	0.352962
122	C	0.274853	0.270389	0.360145
123	C	0.302085	0.295727	0.391101
124	H	0.29689	0.284623	0.424576
125	H	0.302123	0.320787	0.392194
126	H	0.328279	0.301225	0.380473
127	N	0.254749	0.281122	0.33807
128	C	0.228458	0.26164	0.641843
129	N	0.286681	0.221497	0.371419
130	H	0.307564	0.237759	0.388128
131	N	0.208695	0.275301	0.625084
132	H	0.187096	0.258907	0.609973
133	C	0.295516	0.494492	0.602331
134	C	0.269337	0.494134	0.633991
135	H	0.305165	0.517619	0.580731
136	H	0.284897	0.471301	0.580964
137	H	0.317909	0.496293	0.620771
138	N	0.280121	0.0248	0.656525
139	C	0.260737	0.031498	0.352975
140	C	0.225563	0.003657	0.360175
141	C	0.200241	0.005544	0.391171
142	H	0.211366	0.011453	0.424632
143	H	0.175188	0.98052	0.392278
144	H	0.194733	0.026237	0.380562
145	N	0.214829	0.472824	0.338094
146	C	0.234292	0.466018	0.641833
147	N	0.274461	0.06438	0.371432
148	H	0.258201	0.069005	0.388138
149	N	0.22064	0.432579	0.625124
150	H	0.237035	0.427375	0.610013
151	C	0.001454	0.300229	0.602291
152	C	0.0018	0.274374	0.633905
153	H	0.978313	0.286779	0.580705
154	H	0.024636	0.312792	0.580907
155	H	0.999685	0.320824	0.620764
156	N	0.471146	0.254512	0.656468
157	C	0.464456	0.228434	0.352922
158	C	0.49229	0.221084	0.360086
159	C	0.490416	0.193885	0.391088
160	H	0.484532	0.199116	0.424556
161	H	0.515437	0.193846	0.392171
162	H	0.469712	0.16768	0.380506
163	N	0.023119	0.24118	0.337994
164	C	0.02992	0.267449	0.641736
165	N	0.431584	0.209279	0.371409
166	H	0.426965	0.188401	0.388124
167	N	0.063356	0.287239	0.625027
168	H	0.068566	0.308846	0.60993
169	C	0.17573	0.368881	0.624077
170	C	0.139334	0.342863	0.623904
171	C	0.127053	0.306034	0.624004
172	C	0.153076	0.295661	0.623878
173	C	0.189907	0.32021	0.957356
174	C	0.200287	0.35661	0.623874
175	H	0.144725	0.269337	0.626436
176	H	0.226603	0.374572	0.626542
177	H	0.121361	0.351212	0.626479
178	C	0.186513	0.405374	0.628951
179	C	0.215619	0.309429	0.962234
180	C	0.09056	0.280314	0.628841
181	O	0.249552	0.334817	0.63762
182	O	0.161126	0.413914	0.637693
183	O	0.082014	0.246378	0.63753
184	C	0.319445	0.12791	0.707376
185	C	0.355841	0.153915	0.707698
186	C	0.368057	0.190729	0.707413
187	C	0.342043	0.201109	0.707672
188	C	0.305228	0.176518	0.040747
189	C	0.294846	0.140122	0.707678
190	H	0.350356	0.227427	0.704954
191	H	0.268526	0.122122	0.704954
192	H	0.373844	0.145604	0.704947
193	C	0.308646	0.09151	0.701572
194	C	0.279625	0.18731	0.034907
195	C	0.404451	0.216335	0.701565
196	O	0.245909	0.162012	0.691657
197	O	0.333943	0.08309	0.691654
198	O	0.412862	0.250041	0.691614
199	C	0.19572	0.200414	0.935664
200	C	0.221547	0.226604	0.967311
201	H	0.209201	0.19078	0.914044
202	H	0.183123	0.211018	0.914316
203	H	0.175147	0.178013	0.95411
204	N	0.241431	0.215824	0.989844
205	C	0.267513	0.235209	0.686295
206	C	0.274853	0.270389	0.693478
207	C	0.302085	0.295727	0.724437
208	H	0.29689	0.284623	0.757912
209	H	0.302123	0.320787	0.72553
210	H	0.328279	0.301225	0.713808
211	N	0.254749	0.281122	0.671403
212	C	0.228458	0.26164	0.975175
213	N	0.286681	0.221497	0.704751
214	H	0.307564	0.237759	0.72146
215	N	0.208695	0.275301	0.95842
216	H	0.187096	0.258907	0.943305
217	C	0.295516	0.494492	0.935667
218	C	0.269337	0.494134	0.967324
219	H	0.305165	0.517619	0.914064
220	H	0.284897	0.471301	0.914296
221	H	0.317909	0.496293	0.954104
222	N	0.280121	0.0248	0.989857
223	C	0.260737	0.031498	0.686308
224	C	0.225563	0.003657	0.693508
225	C	0.200241	0.005544	0.724504
226	H	0.211366	0.011453	0.757968
227	H	0.175188	0.98052	0.72561
228	H	0.194733	0.026237	0.713898
229	N	0.214829	0.472824	0.67143
230	C	0.234292	0.466018	0.975165
231	N	0.274461	0.06438	0.704765
232	H	0.258201	0.069005	0.72147
233	N	0.22064	0.432579	0.958456
234	H	0.237035	0.427375	0.943345
235	C	0.001454	0.300229	0.935624
236	C	0.0018	0.274374	0.967238
237	H	0.978313	0.286779	0.914037
238	H	0.024636	0.312792	0.91424
239	H	0.999685	0.320824	0.9541
240	N	0.471146	0.254512	0.989801
241	C	0.464456	0.228434	0.686255
242	C	0.49229	0.221084	0.693421
243	C	0.490416	0.193885	0.724421
244	H	0.484532	0.199116	0.757888
245	H	0.515437	0.193846	0.725504
246	H	0.469712	0.16768	0.713838
247	N	0.023119	0.24118	0.671327
248	C	0.02992	0.267449	0.975069
249	N	0.431584	0.209279	0.704741
250	H	0.426965	0.188401	0.721457
251	N	0.063356	0.287239	0.95836
252	H	0.068566	0.308846	0.943262
253	C	0.17573	0.868882	0.95741
254	C	0.139334	0.842863	0.957237
255	C	0.127055	0.806034	0.957336
256	C	0.153077	0.795661	0.95721
257	C	0.189908	0.82021	0.290691
258	C	0.200288	0.85661	0.957207
259	H	0.144727	0.769338	0.959769
260	H	0.226605	0.874575	0.959875
261	H	0.121361	0.851213	0.959815
262	C	0.186513	0.905374	0.962284
263	C	0.21562	0.809429	0.295568
264	C	0.090561	0.780314	0.962177
265	O	0.249553	0.834817	0.970952
266	O	0.161127	0.913915	0.971029
267	O	0.082014	0.746377	0.970862
268	C	0.319446	0.627912	0.040712
269	C	0.35584	0.653915	0.041031
270	C	0.368059	0.69073	0.040746
271	C	0.342043	0.701109	0.041006
272	C	0.30523	0.67652	0.37408
273	C	0.294846	0.640123	0.041011
274	H	0.350356	0.727427	0.038287
275	H	0.268527	0.622123	0.038289
276	H	0.373845	0.645605	0.03828
277	C	0.308647	0.591509	0.034906
278	C	0.279625	0.687309	0.368239
279	C	0.404452	0.716336	0.0349
280	O	0.245911	0.662013	0.024992
281	O	0.333943	0.583091	0.024989
282	O	0.412862	0.750043	0.024947
283	C	0.195721	0.700415	0.268998
284	C	0.221547	0.726603	0.300644
285	H	0.209202	0.690781	0.247377
286	H	0.183123	0.711018	0.247649
287	H	0.175148	0.678014	0.287445
288	N	0.241433	0.715825	0.323179
289	C	0.267514	0.73521	0.019628
290	C	0.274854	0.770389	0.026811
291	C	0.302086	0.795727	0.05777
292	H	0.296891	0.784623	0.091244
293	H	0.302123	0.820787	0.058863
294	H	0.328279	0.801225	0.047141
295	N	0.25475	0.781122	0.004737
296	C	0.228458	0.761639	0.308508
297	N	0.286682	0.721497	0.038087
298	H	0.307566	0.73776	0.054794
299	N	0.208696	0.775301	0.291752
300	H	0.187097	0.758906	0.27664
301	C	0.295517	0.994492	0.268999
302	C	0.269338	0.994135	0.300658
303	H	0.305166	0.017619	0.247397
304	H	0.284897	0.971302	0.247632
305	H	0.317911	0.996295	0.287437
306	N	0.280122	0.524801	0.323191
307	C	0.260739	0.531498	0.019642
308	C	0.225564	0.503657	0.026843
309	C	0.200243	0.505546	0.057837
310	H	0.211366	0.511454	0.091301
311	H	0.175187	0.48052	0.058945
312	H	0.194734	0.526239	0.047231
313	N	0.21483	0.972824	0.004762
314	C	0.234293	0.966018	0.308498
315	N	0.274461	0.564381	0.038099
316	H	0.258201	0.569005	0.054806
317	N	0.220641	0.932582	0.291791
318	H	0.237036	0.927375	0.27668
319	C	0.001454	0.800229	0.268958
320	C	0.001802	0.774377	0.30057
321	H	0.978316	0.786781	0.247371
322	H	0.024636	0.812792	0.247573
323	H	0.999686	0.820824	0.287433
324	N	0.471148	0.754513	0.323135
325	C	0.464456	0.728436	0.019589
326	C	0.49229	0.721084	0.026754
327	C	0.490417	0.693884	0.057754
328	H	0.484532	0.699115	0.091223
329	H	0.515439	0.693847	0.058838
330	H	0.469712	0.66768	0.047173
331	N	0.023119	0.741182	0.004662
332	C	0.029921	0.767449	0.308402
333	N	0.431583	0.709279	0.038074
334	H	0.426966	0.6884	0.05479
335	N	0.063356	0.78724	0.291694
336	H	0.068566	0.808846	0.276596
337	C	0.17573	0.868882	0.290744
338	C	0.139334	0.842863	0.290572
339	C	0.127055	0.806034	0.290671
340	C	0.153077	0.795661	0.290543
341	C	0.189908	0.82021	0.624024
342	C	0.200288	0.85661	0.29054
343	H	0.144727	0.769338	0.293103
344	H	0.226605	0.874575	0.293209
345	H	0.121361	0.851213	0.293148
346	C	0.186513	0.905374	0.295617
347	C	0.21562	0.809429	0.628901
348	C	0.090561	0.780314	0.29551
349	O	0.249553	0.834817	0.304286
350	O	0.161127	0.913915	0.304361
351	O	0.082014	0.746377	0.304198
352	C	0.319446	0.627912	0.374043
353	C	0.35584	0.653915	0.374362
354	C	0.368059	0.69073	0.37408
355	C	0.342043	0.701109	0.374339
356	C	0.30523	0.67652	0.707413
357	C	0.294846	0.640123	0.374346
358	H	0.350356	0.727427	0.371621
359	H	0.268527	0.622123	0.371621
360	H	0.373845	0.645605	0.371615
361	C	0.308647	0.591509	0.368239
362	C	0.279625	0.687309	0.701572
363	C	0.404452	0.716336	0.368232
364	O	0.245911	0.662013	0.358325
365	O	0.333943	0.583091	0.358321
366	O	0.412862	0.750043	0.358281
367	C	0.195721	0.700415	0.602331
368	C	0.221547	0.726603	0.633978
369	H	0.209202	0.690781	0.580711
370	H	0.183123	0.711018	0.58098
371	H	0.175148	0.678014	0.620778
372	N	0.241433	0.715825	0.656511
373	C	0.267514	0.73521	0.352962
374	C	0.274854	0.770389	0.360145
375	C	0.302086	0.795727	0.391101
376	H	0.296891	0.784623	0.424576
377	H	0.302123	0.820787	0.392194
378	H	0.328279	0.801225	0.380473
379	N	0.25475	0.781122	0.33807
380	C	0.228458	0.761639	0.641843
381	N	0.286682	0.721497	0.371419
382	H	0.307566	0.73776	0.388128
383	N	0.208696	0.775301	0.625084
384	H	0.187097	0.758906	0.609973
385	C	0.295517	0.994492	0.602331
386	C	0.269338	0.994135	0.633991
387	H	0.305166	0.017619	0.580731
388	H	0.284897	0.971302	0.580964
389	H	0.317911	0.996295	0.620771
390	N	0.280122	0.524801	0.656525
391	C	0.260739	0.531498	0.352975
392	C	0.225564	0.503657	0.360175
393	C	0.200243	0.505546	0.391171
394	H	0.211366	0.511454	0.424632
395	H	0.175187	0.48052	0.392278
396	H	0.194734	0.526239	0.380562
397	N	0.21483	0.972824	0.338094
398	C	0.234293	0.966018	0.641833
399	N	0.274461	0.564381	0.371432
400	H	0.258201	0.569005	0.388138
401	N	0.220641	0.932582	0.625124
402	H	0.237036	0.927375	0.610013
403	C	0.001454	0.800229	0.602291
404	C	0.001802	0.774377	0.633905
405	H	0.978316	0.786781	0.580705
406	H	0.024636	0.812792	0.580907
407	H	0.999686	0.820824	0.620764
408	N	0.471148	0.754513	0.656468
409	C	0.464456	0.728436	0.352922
410	C	0.49229	0.721084	0.360086
411	C	0.490417	0.693884	0.391088
412	H	0.484532	0.699115	0.424556
413	H	0.515439	0.693847	0.392171
414	H	0.469712	0.66768	0.380506
415	N	0.023119	0.741182	0.337994
416	C	0.029921	0.767449	0.641736
417	N	0.431583	0.709279	0.371409
418	H	0.426966	0.6884	0.388124
419	N	0.063356	0.78724	0.625027
420	H	0.068566	0.808846	0.60993
421	C	0.17573	0.868882	0.624077
422	C	0.139334	0.842863	0.623904
423	C	0.127055	0.806034	0.624004
424	C	0.153077	0.795661	0.623878
425	C	0.189908	0.82021	0.957356
426	C	0.200288	0.85661	0.623874
427	H	0.144727	0.769338	0.626436
428	H	0.226605	0.874575	0.626542
429	H	0.121361	0.851213	0.626479
430	C	0.186513	0.905374	0.628951
431	C	0.21562	0.809429	0.962234
432	C	0.090561	0.780314	0.628841
433	O	0.249553	0.834817	0.63762
434	O	0.161127	0.913915	0.637693
435	O	0.082014	0.746377	0.63753
436	C	0.319446	0.627912	0.707376
437	C	0.35584	0.653915	0.707698
438	C	0.368059	0.69073	0.707413
439	C	0.342043	0.701109	0.707672
440	C	0.30523	0.67652	0.040747
441	C	0.294846	0.640123	0.707678
442	H	0.350356	0.727427	0.704954
443	H	0.268527	0.622123	0.704954
444	H	0.373845	0.645605	0.704947
445	C	0.308647	0.591509	0.701572
446	C	0.279625	0.687309	0.034906
447	C	0.404452	0.716336	0.701565
448	O	0.245911	0.662013	0.691657
449	O	0.333943	0.583091	0.691654
450	O	0.412862	0.750043	0.691614
451	C	0.195721	0.700415	0.935664
452	C	0.221547	0.726603	0.967311
453	H	0.209202	0.690781	0.914044
454	H	0.183123	0.711018	0.914316
455	H	0.175148	0.678014	0.95411
456	N	0.241433	0.715825	0.989844
457	C	0.267514	0.73521	0.686295
458	C	0.274854	0.770389	0.693478
459	C	0.302086	0.795727	0.724437
460	H	0.296891	0.784623	0.757912
461	H	0.302123	0.820787	0.72553
462	H	0.328279	0.801225	0.713808
463	N	0.25475	0.781122	0.671403
464	C	0.228458	0.761639	0.975175
465	N	0.286682	0.721497	0.704751
466	H	0.307566	0.73776	0.72146
467	N	0.208696	0.775301	0.95842
468	H	0.187097	0.758906	0.943305
469	C	0.295517	0.994492	0.935667
470	C	0.269338	0.994135	0.967324
471	H	0.305166	0.017619	0.914064
472	H	0.284897	0.971302	0.914296
473	H	0.317911	0.996295	0.954104
474	N	0.280122	0.524801	0.989857
475	C	0.260739	0.531498	0.686308
476	C	0.225564	0.503657	0.693508
477	C	0.200243	0.505546	0.724504
478	H	0.211366	0.511454	0.757968
479	H	0.175187	0.48052	0.72561
480	H	0.194734	0.526239	0.713898
481	N	0.21483	0.972824	0.67143
482	C	0.234293	0.966018	0.975165
483	N	0.274461	0.564381	0.704765
484	H	0.258201	0.569005	0.72147
485	N	0.220641	0.932582	0.958456
486	H	0.237036	0.927375	0.943345
487	C	0.001454	0.800229	0.935624
488	C	0.001802	0.774377	0.967238
489	H	0.978316	0.786781	0.914037
490	H	0.024636	0.812792	0.91424
491	H	0.999686	0.820824	0.9541
492	N	0.471148	0.754513	0.989801
493	C	0.464456	0.728436	0.686255
494	C	0.49229	0.721084	0.693421
495	C	0.490417	0.693884	0.724421
496	H	0.484532	0.699115	0.757888
497	H	0.515439	0.693847	0.725504
498	H	0.469712	0.66768	0.713838
499	N	0.023119	0.741182	0.671327
500	C	0.029921	0.767449	0.975069
501	N	0.431583	0.709279	0.704741
502	H	0.426966	0.6884	0.721457
503	N	0.063356	0.78724	0.95836
504	H	0.068566	0.808846	0.943262
505	C	0.67573	0.368881	0.95741
506	C	0.639334	0.342863	0.957237
507	C	0.627052	0.306034	0.957336
508	C	0.653075	0.295661	0.95721
509	C	0.689907	0.32021	0.290691
510	C	0.700287	0.35661	0.957207
511	H	0.644725	0.269337	0.959769
512	H	0.726604	0.374572	0.959875
513	H	0.621361	0.351212	0.959815
514	C	0.686513	0.405374	0.962284
515	C	0.71562	0.309429	0.295568
516	C	0.590559	0.280314	0.962177
517	O	0.749552	0.334817	0.970952
518	O	0.661127	0.413914	0.971029
519	O	0.582014	0.246378	0.970862
520	C	0.819444	0.12791	0.040712
521	C	0.855839	0.153915	0.041031
522	C	0.868059	0.190729	0.040746
523	C	0.842042	0.201109	0.041006
524	C	0.805228	0.176518	0.37408
525	C	0.794846	0.140122	0.041011
526	H	0.850355	0.227427	0.038287
527	H	0.768526	0.122122	0.038289
528	H	0.873845	0.145604	0.03828
529	C	0.808647	0.09151	0.034906
530	C	0.779625	0.18731	0.368239
531	C	0.904452	0.216335	0.0349
532	O	0.745909	0.162012	0.024992
533	O	0.833942	0.08309	0.024989
534	O	0.912861	0.250041	0.024947
535	C	0.69572	0.200414	0.268998
536	C	0.721546	0.226604	0.300644
537	H	0.7092	0.19078	0.247377
538	H	0.683122	0.211018	0.247649
539	H	0.675147	0.178013	0.287445
540	N	0.741432	0.215824	0.323179
541	C	0.767513	0.235209	0.019628
542	C	0.774854	0.270389	0.026811
543	C	0.802084	0.295727	0.05777
544	H	0.79689	0.284623	0.091244
545	H	0.802122	0.320787	0.058863
546	H	0.828279	0.301225	0.047141
547	N	0.75475	0.281122	0.004737
548	C	0.728457	0.26164	0.308508
549	N	0.786681	0.221497	0.038087
550	H	0.807564	0.237759	0.054794
551	N	0.708695	0.275301	0.291752
552	H	0.687096	0.258907	0.27664
553	C	0.795517	0.494492	0.268999
554	C	0.769338	0.494134	0.300658
555	H	0.805166	0.517619	0.247397
556	H	0.784897	0.471301	0.247632
557	H	0.817909	0.496293	0.287437
558	N	0.780122	0.0248	0.323191
559	C	0.760738	0.031498	0.019642
560	C	0.725563	0.003657	0.026843
561	C	0.700242	0.005544	0.057837
562	H	0.711365	0.011453	0.091301
563	H	0.675187	0.98052	0.058945
564	H	0.694734	0.026237	0.047231
565	N	0.71483	0.472824	0.004762
566	C	0.734293	0.466018	0.308498
567	N	0.77446	0.06438	0.038099
568	H	0.7582	0.069005	0.054806
569	N	0.72064	0.432579	0.291791
570	H	0.737036	0.427375	0.27668
571	C	0.501454	0.300229	0.268958
572	C	0.501801	0.274374	0.30057
573	H	0.478312	0.286779	0.247371
574	H	0.524636	0.312792	0.247573
575	H	0.499686	0.320824	0.287433
576	N	0.971147	0.254512	0.323135
577	C	0.964454	0.228434	0.019589
578	C	0.992291	0.221084	0.026754
579	C	0.990417	0.193885	0.057754
580	H	0.984531	0.199116	0.091223
581	H	0.015438	0.193846	0.058838
582	H	0.969713	0.16768	0.047173
583	N	0.523119	0.24118	0.004662
584	C	0.529921	0.267449	0.308402
585	N	0.931583	0.209279	0.038074
586	H	0.926966	0.188401	0.05479
587	N	0.563356	0.287239	0.291694
588	H	0.568566	0.308846	0.276596
589	C	0.67573	0.368881	0.290744
590	C	0.639334	0.342863	0.290572
591	C	0.627052	0.306034	0.290671
592	C	0.653075	0.295661	0.290543
593	C	0.689907	0.32021	0.624024
594	C	0.700287	0.35661	0.29054
595	H	0.644725	0.269337	0.293103
596	H	0.726604	0.374572	0.293209
597	H	0.621361	0.351212	0.293148
598	C	0.686513	0.405374	0.295617
599	C	0.71562	0.309429	0.628901
600	C	0.590559	0.280314	0.29551
601	O	0.749552	0.334817	0.304286
602	O	0.661127	0.413914	0.304361
603	O	0.582014	0.246378	0.304198
604	C	0.819444	0.12791	0.374043
605	C	0.855839	0.153915	0.374362
606	C	0.868059	0.190729	0.37408
607	C	0.842042	0.201109	0.374339
608	C	0.805228	0.176518	0.707413
609	C	0.794846	0.140122	0.374346
610	H	0.850355	0.227427	0.371621
611	H	0.768526	0.122122	0.371621
612	H	0.873845	0.145604	0.371615
613	C	0.808647	0.09151	0.368239
614	C	0.779625	0.18731	0.701572
615	C	0.904452	0.216335	0.368232
616	O	0.745909	0.162012	0.358325
617	O	0.833942	0.08309	0.358321
618	O	0.912861	0.250041	0.358281
619	C	0.69572	0.200414	0.602331
620	C	0.721546	0.226604	0.633978
621	H	0.7092	0.19078	0.580711
622	H	0.683122	0.211018	0.58098
623	H	0.675147	0.178013	0.620778
624	N	0.741432	0.215824	0.656511
625	C	0.767513	0.235209	0.352962
626	C	0.774854	0.270389	0.360145
627	C	0.802084	0.295727	0.391101
628	H	0.79689	0.284623	0.424576
629	H	0.802122	0.320787	0.392194
630	H	0.828279	0.301225	0.380473
631	N	0.75475	0.281122	0.33807
632	C	0.728457	0.26164	0.641843
633	N	0.786681	0.221497	0.371419
634	H	0.807564	0.237759	0.388128
635	N	0.708695	0.275301	0.625084
636	H	0.687096	0.258907	0.609973
637	C	0.795517	0.494492	0.602331
638	C	0.769338	0.494134	0.633991
639	H	0.805166	0.517619	0.580731
640	H	0.784897	0.471301	0.580964
641	H	0.817909	0.496293	0.620771
642	N	0.780122	0.0248	0.656525
643	C	0.760738	0.031498	0.352975
644	C	0.725563	0.003657	0.360175
645	C	0.700242	0.005544	0.391171
646	H	0.711365	0.011453	0.424632
647	H	0.675187	0.98052	0.392278
648	H	0.694734	0.026237	0.380562
649	N	0.71483	0.472824	0.338094
650	C	0.734293	0.466018	0.641833
651	N	0.77446	0.06438	0.371432
652	H	0.7582	0.069005	0.388138
653	N	0.72064	0.432579	0.625124
654	H	0.737036	0.427375	0.610013
655	C	0.501454	0.300229	0.602291
656	C	0.501801	0.274374	0.633905
657	H	0.478312	0.286779	0.580705
658	H	0.524636	0.312792	0.580907
659	H	0.499686	0.320824	0.620764
660	N	0.971147	0.254512	0.656468
661	C	0.964454	0.228434	0.352922
662	C	0.992291	0.221084	0.360086
663	C	0.990417	0.193885	0.391088
664	H	0.984531	0.199116	0.424556
665	H	0.015438	0.193846	0.392171
666	H	0.969713	0.16768	0.380506
667	N	0.523119	0.24118	0.337994
668	C	0.529921	0.267449	0.641736
669	N	0.931583	0.209279	0.371409
670	H	0.926966	0.188401	0.388124
671	N	0.563356	0.287239	0.625027
672	H	0.568566	0.308846	0.60993
673	C	0.67573	0.368881	0.624077
674	C	0.639334	0.342863	0.623904
675	C	0.627052	0.306034	0.624004
676	C	0.653075	0.295661	0.623878
677	C	0.689907	0.32021	0.957356
678	C	0.700287	0.35661	0.623874
679	H	0.644725	0.269337	0.626436
680	H	0.726604	0.374572	0.626542
681	H	0.621361	0.351212	0.626479
682	C	0.686513	0.405374	0.628951
683	C	0.71562	0.309429	0.962234
684	C	0.590559	0.280314	0.628841
685	O	0.749552	0.334817	0.63762
686	O	0.661127	0.413914	0.637693
687	O	0.582014	0.246378	0.63753
688	C	0.819444	0.12791	0.707376
689	C	0.855839	0.153915	0.707698
690	C	0.868059	0.190729	0.707413
691	C	0.842042	0.201109	0.707672
692	C	0.805228	0.176518	0.040747
693	C	0.794846	0.140122	0.707678
694	H	0.850355	0.227427	0.704954
695	H	0.768526	0.122122	0.704954
696	H	0.873845	0.145604	0.704947
697	C	0.808647	0.09151	0.701572
698	C	0.779625	0.18731	0.034907
699	C	0.904452	0.216335	0.701565
700	O	0.745909	0.162012	0.691657
701	O	0.833942	0.08309	0.691654
702	O	0.912861	0.250041	0.691614
703	C	0.69572	0.200414	0.935664
704	C	0.721546	0.226604	0.967311
705	H	0.7092	0.19078	0.914044
706	H	0.683122	0.211018	0.914316
707	H	0.675147	0.178013	0.95411
708	N	0.741432	0.215824	0.989844
709	C	0.767513	0.235209	0.686295
710	C	0.774854	0.270389	0.693478
711	C	0.802084	0.295727	0.724437
712	H	0.79689	0.284623	0.757912
713	H	0.802122	0.320787	0.72553
714	H	0.828279	0.301225	0.713808
715	N	0.75475	0.281122	0.671403
716	C	0.728457	0.26164	0.975175
717	N	0.786681	0.221497	0.704751
718	H	0.807564	0.237759	0.72146
719	N	0.708695	0.275301	0.95842
720	H	0.687096	0.258907	0.943305
721	C	0.795517	0.494492	0.935667
722	C	0.769338	0.494134	0.967324
723	H	0.805166	0.517619	0.914064
724	H	0.784897	0.471301	0.914296
725	H	0.817909	0.496293	0.954104
726	N	0.780122	0.0248	0.989857
727	C	0.760738	0.031498	0.686308
728	C	0.725563	0.003657	0.693508
729	C	0.700242	0.005544	0.724504
730	H	0.711365	0.011453	0.757968
731	H	0.675187	0.98052	0.72561
732	H	0.694734	0.026237	0.713898
733	N	0.71483	0.472824	0.67143
734	C	0.734293	0.466018	0.975165
735	N	0.77446	0.06438	0.704765
736	H	0.7582	0.069005	0.72147
737	N	0.72064	0.432579	0.958456
738	H	0.737036	0.427375	0.943345
739	C	0.501454	0.300229	0.935624
740	C	0.501801	0.274374	0.967238
741	H	0.478312	0.286779	0.914037
742	H	0.524636	0.312792	0.91424
743	H	0.499686	0.320824	0.9541
744	N	0.971147	0.254512	0.989801
745	C	0.964454	0.228434	0.686255
746	C	0.992291	0.221084	0.693421
747	C	0.990417	0.193885	0.724421
748	H	0.984531	0.199116	0.757888
749	H	0.015438	0.193846	0.725504
750	H	0.969713	0.16768	0.713838
751	N	0.523119	0.24118	0.671327
752	C	0.529921	0.267449	0.975069
753	N	0.931583	0.209279	0.704741
754	H	0.926966	0.188401	0.721457
755	N	0.563356	0.287239	0.95836
756	H	0.568566	0.308846	0.943262
757	C	0.675731	0.868882	0.95741
758	C	0.639335	0.842863	0.957237
759	C	0.627054	0.806034	0.957336
760	C	0.653076	0.795661	0.95721
761	C	0.689908	0.82021	0.290691
762	C	0.700288	0.85661	0.957207
763	H	0.644726	0.769338	0.959769
764	H	0.726604	0.874575	0.959875
765	H	0.621362	0.851213	0.959815
766	C	0.686514	0.905374	0.962284
767	C	0.715619	0.809429	0.295568
768	C	0.59056	0.780314	0.962177
769	O	0.749553	0.834817	0.970952
770	O	0.661127	0.913915	0.971029
771	O	0.582014	0.746377	0.970862
772	C	0.819446	0.627912	0.040712
773	C	0.85584	0.653915	0.041031
774	C	0.868058	0.69073	0.040746
775	C	0.842043	0.701109	0.041006
776	C	0.80523	0.67652	0.37408
777	C	0.794847	0.640123	0.041011
778	H	0.850356	0.727427	0.038287
779	H	0.768527	0.622123	0.038289
780	H	0.873844	0.645605	0.03828
781	C	0.808648	0.591509	0.034906
782	C	0.779626	0.687309	0.368239
783	C	0.904451	0.716336	0.0349
784	O	0.745911	0.662013	0.024992
785	O	0.833943	0.583091	0.024989
786	O	0.912863	0.750043	0.024947
787	C	0.695722	0.700415	0.268998
788	C	0.721547	0.726603	0.300644
789	H	0.709202	0.690781	0.247377
790	H	0.683124	0.711018	0.247649
791	H	0.675148	0.678014	0.287445
792	N	0.741434	0.715825	0.323179
793	C	0.767515	0.73521	0.019628
794	C	0.774853	0.770389	0.026811
795	C	0.802085	0.795727	0.05777
796	H	0.796891	0.784623	0.091244
797	H	0.802123	0.820787	0.058863
798	H	0.82828	0.801225	0.047141
799	N	0.754749	0.781122	0.004737
800	C	0.728458	0.761639	0.308508
801	N	0.786682	0.721497	0.038087
802	H	0.807565	0.73776	0.054794
803	N	0.708697	0.775301	0.291752
804	H	0.687096	0.758906	0.27664
805	C	0.795516	0.994492	0.268999
806	C	0.769337	0.994135	0.300658
807	H	0.805165	0.017619	0.247397
808	H	0.784898	0.971302	0.247632
809	H	0.81791	0.996295	0.287437
810	N	0.780123	0.524801	0.323191
811	C	0.76074	0.531498	0.019642
812	C	0.725564	0.503657	0.026843
813	C	0.700244	0.505546	0.057837
814	H	0.711367	0.511454	0.091301
815	H	0.675186	0.48052	0.058945
816	H	0.694733	0.526239	0.047231
817	N	0.71483	0.972824	0.004762
818	C	0.734294	0.966018	0.308498
819	N	0.774461	0.564381	0.038099
820	H	0.758201	0.569005	0.054806
821	N	0.720642	0.932582	0.291791
822	H	0.737035	0.927375	0.27668
823	C	0.501455	0.800229	0.268958
824	C	0.501802	0.774377	0.30057
825	H	0.478315	0.786781	0.247371
826	H	0.524636	0.812792	0.247573
827	H	0.499686	0.820824	0.287433
828	N	0.971149	0.754513	0.323135
829	C	0.964456	0.728436	0.019589
830	C	0.99229	0.721084	0.026754
831	C	0.990416	0.693884	0.057754
832	H	0.984532	0.699115	0.091223
833	H	0.01544	0.693847	0.058838
834	H	0.969711	0.66768	0.047173
835	N	0.52312	0.741182	0.004662
836	C	0.529921	0.767449	0.308402
837	N	0.931583	0.709279	0.038074
838	H	0.926967	0.6884	0.05479
839	N	0.563357	0.78724	0.291694
840	H	0.568566	0.808846	0.276596
841	C	0.675731	0.868882	0.290744
842	C	0.639335	0.842863	0.290572
843	C	0.627054	0.806034	0.290671
844	C	0.653076	0.795661	0.290543
845	C	0.689908	0.82021	0.624024
846	C	0.700288	0.85661	0.29054
847	H	0.644726	0.769338	0.293103
848	H	0.726604	0.874575	0.293209
849	H	0.621362	0.851213	0.293148
850	C	0.686514	0.905374	0.295617
851	C	0.715619	0.809429	0.628901
852	C	0.59056	0.780314	0.29551
853	O	0.749553	0.834817	0.304286
854	O	0.661127	0.913915	0.304361
855	O	0.582014	0.746377	0.304198
856	C	0.819446	0.627912	0.374043
857	C	0.85584	0.653915	0.374362
858	C	0.868058	0.69073	0.37408
859	C	0.842043	0.701109	0.374339
860	C	0.80523	0.67652	0.707413
861	C	0.794847	0.640123	0.374346
862	H	0.850356	0.727427	0.371621
863	H	0.768527	0.622123	0.371621
864	H	0.873844	0.645605	0.371615
865	C	0.808648	0.591509	0.368239
866	C	0.779626	0.687309	0.701572
867	C	0.904451	0.716336	0.368232
868	O	0.745911	0.662013	0.358325
869	O	0.833943	0.583091	0.358321
870	O	0.912863	0.750043	0.358281
871	C	0.695722	0.700415	0.602331
872	C	0.721547	0.726603	0.633978
873	H	0.709202	0.690781	0.580711
874	H	0.683124	0.711018	0.58098
875	H	0.675148	0.678014	0.620778
876	N	0.741434	0.715825	0.656511
877	C	0.767515	0.73521	0.352962
878	C	0.774853	0.770389	0.360145
879	C	0.802085	0.795727	0.391101
880	H	0.796891	0.784623	0.424576
881	H	0.802123	0.820787	0.392194
882	H	0.82828	0.801225	0.380473
883	N	0.754749	0.781122	0.33807
884	C	0.728458	0.761639	0.641843
885	N	0.786682	0.721497	0.371419
886	H	0.807565	0.73776	0.388128
887	N	0.708697	0.775301	0.625084
888	H	0.687096	0.758906	0.609973
889	C	0.795516	0.994492	0.602331
890	C	0.769337	0.994135	0.633991
891	H	0.805165	0.017619	0.580731
892	H	0.784898	0.971302	0.580964
893	H	0.81791	0.996295	0.620771
894	N	0.780123	0.524801	0.656525
895	C	0.76074	0.531498	0.352975
896	C	0.725564	0.503657	0.360175
897	C	0.700244	0.505546	0.391171
898	H	0.711367	0.511454	0.424632
899	H	0.675186	0.48052	0.392278
900	H	0.694733	0.526239	0.380562
901	N	0.71483	0.972824	0.338094
902	C	0.734294	0.966018	0.641833
903	N	0.774461	0.564381	0.371432
904	H	0.758201	0.569005	0.388138
905	N	0.720642	0.932582	0.625124
906	H	0.737035	0.927375	0.610013
907	C	0.501455	0.800229	0.602291
908	C	0.501802	0.774377	0.633905
909	H	0.478315	0.786781	0.580705
910	H	0.524636	0.812792	0.580907
911	H	0.499686	0.820824	0.620764
912	N	0.971149	0.754513	0.656468
913	C	0.964456	0.728436	0.352922
914	C	0.99229	0.721084	0.360086
915	C	0.990416	0.693884	0.391088
916	H	0.984532	0.699115	0.424556
917	H	0.01544	0.693847	0.392171
918	H	0.969711	0.66768	0.380506
919	N	0.52312	0.741182	0.337994
920	C	0.529921	0.767449	0.641736
921	N	0.931583	0.709279	0.371409
922	H	0.926967	0.6884	0.388124
923	N	0.563357	0.78724	0.625027
924	H	0.568566	0.808846	0.60993
925	C	0.675731	0.868882	0.624077
926	C	0.639335	0.842863	0.623904
927	C	0.627054	0.806034	0.624004
928	C	0.653076	0.795661	0.623878
929	C	0.689908	0.82021	0.957356
930	C	0.700288	0.85661	0.623874
931	H	0.644726	0.769338	0.626436
932	H	0.726604	0.874575	0.626542
933	H	0.621362	0.851213	0.626479
934	C	0.686514	0.905374	0.628951
935	C	0.715619	0.809429	0.962234
936	C	0.59056	0.780314	0.628841
937	O	0.749553	0.834817	0.63762
938	O	0.661127	0.913915	0.637693
939	O	0.582014	0.746377	0.63753
940	C	0.819446	0.627912	0.707376
941	C	0.85584	0.653915	0.707698
942	C	0.868058	0.69073	0.707413
943	C	0.842043	0.701109	0.707672
944	C	0.80523	0.67652	0.040747
945	C	0.794847	0.640123	0.707678
946	H	0.850356	0.727427	0.704954
947	H	0.768527	0.622123	0.704954
948	H	0.873844	0.645605	0.704947
949	C	0.808648	0.591509	0.701572
950	C	0.779626	0.687309	0.034906
951	C	0.904451	0.716336	0.701565
952	O	0.745911	0.662013	0.691657
953	O	0.833943	0.583091	0.691654
954	O	0.912863	0.750043	0.691614
955	C	0.695722	0.700415	0.935664
956	C	0.721547	0.726603	0.967311
957	H	0.709202	0.690781	0.914044
958	H	0.683124	0.711018	0.914316
959	H	0.675148	0.678014	0.95411
960	N	0.741434	0.715825	0.989844
961	C	0.767515	0.73521	0.686295
962	C	0.774853	0.770389	0.693478
963	C	0.802085	0.795727	0.724437
964	H	0.796891	0.784623	0.757912
965	H	0.802123	0.820787	0.72553
966	H	0.82828	0.801225	0.713808
967	N	0.754749	0.781122	0.671403
968	C	0.728458	0.761639	0.975175
969	N	0.786682	0.721497	0.704751
970	H	0.807565	0.73776	0.72146
971	N	0.708697	0.775301	0.95842
972	H	0.687096	0.758906	0.943305
973	C	0.795516	0.994492	0.935667
974	C	0.769337	0.994135	0.967324
975	H	0.805165	0.017619	0.914064
976	H	0.784898	0.971302	0.914296
977	H	0.81791	0.996295	0.954104
978	N	0.780123	0.524801	0.989857
979	C	0.76074	0.531498	0.686308
980	C	0.725564	0.503657	0.693508
981	C	0.700244	0.505546	0.724504
982	H	0.711367	0.511454	0.757968
983	H	0.675186	0.48052	0.72561
984	H	0.694733	0.526239	0.713898
985	N	0.71483	0.972824	0.67143
986	C	0.734294	0.966018	0.975165
987	N	0.774461	0.564381	0.704765
988	H	0.758201	0.569005	0.72147
989	N	0.720642	0.932582	0.958456
990	H	0.737035	0.927375	0.943345
991	C	0.501455	0.800229	0.935624
992	C	0.501802	0.774377	0.967238
993	H	0.478315	0.786781	0.914037
994	H	0.524636	0.812792	0.91424
995	H	0.499686	0.820824	0.9541
996	N	0.971149	0.754513	0.989801
997	C	0.964456	0.728436	0.686255
998	C	0.99229	0.721084	0.693421
999	C	0.990416	0.693884	0.724421
1000	H	0.984532	0.699115	0.757888
1001	H	0.01544	0.693847	0.725504
1002	H	0.969711	0.66768	0.713838
1003	N	0.52312	0.741182	0.671327
1004	C	0.529921	0.767449	0.975069
1005	N	0.931583	0.709279	0.704741
1006	H	0.926967	0.6884	0.721457
1007	N	0.563357	0.78724	0.95836
1008	H	0.568566	0.808846	0.943262
