data_C648H504N144O72_2018-02-15_10:34:05
#******************************************
#
# CIF file created by Zeo++
# Zeo++ is an open source package to
# analyze microporous materials
#
#*******************************************

_cell_length_a		57.7356   
_cell_length_b		57.7356   
_cell_length_c		30.0056   
_cell_angle_alpha		90   
_cell_angle_beta		90   
_cell_angle_gamma		120   

_symmetry_space_group_name_H-M		'P1'
_symmetry_Int_Tables_number		1
_symmetry_cell_setting		Monoclinic

loop_
_symmetry_equiv_pos_as_xyz
'+x,+y,+z'

loop_
_atom_site_label
_atom_site_type_symbol
_atom_site_fract_x
_atom_site_fract_y
_atom_site_fract_z
1	C	0.177152	0.315823	0.064762
2	C	0.149204	0.305399	0.064879
3	C	0.138482	0.322613	0.06479
4	C	0.156008	0.350563	0.06489
5	C	0.183943	0.361285	0.06478
6	C	0.194366	0.343759	0.064861
7	H	0.148334	0.363151	0.065417
8	H	0.214629	0.351433	0.065391
9	H	0.136616	0.285137	0.065399
10	N	0.188652	0.299231	0.065899
11	H	0.180831	0.286287	0.092377
12	N	0.200535	0.389374	0.065916
13	H	0.213483	0.394496	0.092389
14	N	0.110392	0.311115	0.065928
15	H	0.105269	0.318935	0.092408
16	C	0.319262	0.180976	0.934369
17	C	0.347521	0.194682	0.934066
18	C	0.361526	0.180506	0.934392
19	C	0.346974	0.152247	0.934096
20	C	0.318793	0.13824	0.934382
21	C	0.305087	0.152795	0.934082
22	H	0.357003	0.141824	0.935066
23	H	0.284636	0.142765	0.935046
24	H	0.357945	0.215134	0.935056
25	N	0.304546	0.194498	0.937232
26	H	0.310751	0.208586	0.912357
27	N	0.305269	0.110002	0.937245
28	H	0.291181	0.10212	0.91237
29	N	0.389765	0.195222	0.937255
30	H	0.397648	0.189014	0.912383
31	C	0.28796	0.217856	0.988436
32	C	0.269242	0.21626	0.289801
33	N	0.253408	0.226844	0.298523
34	C	0.254195	0.239252	0.00412
35	C	0.272294	0.241318	0.038037
36	C	0.288964	0.230378	0.029477
37	H	0.302288	0.23171	0.053279
38	C	0.237332	0.250102	0.010792
39	C	0.203567	0.25854	0.315876
40	C	0.203782	0.272224	0.35503
41	C	0.221495	0.274263	0.056097
42	H	0.267255	0.207266	0.259659
43	N	0.220043	0.248272	0.311733
44	C	0.238432	0.263266	0.051388
45	C	0.256402	0.2652	0.085268
46	C	0.273217	0.254246	0.078656
47	H	0.222365	0.284165	0.084814
48	H	0.191302	0.256508	0.289786
49	O	0.257375	0.276955	0.125135
50	H	0.270979	0.295943	0.121878
51	O	0.289771	0.25585	0.112364
52	H	0.306563	0.272832	0.108083
53	C	0.186204	0.284253	0.357523
54	H	0.165417	0.268332	0.353351
55	H	0.191414	0.297981	0.329273
56	C	0.306322	0.207064	0.981364
57	H	0.301835	0.192101	0.007377
58	H	0.326829	0.223414	0.986473
59	C	0.281913	0.070059	0.988456
60	C	0.283507	0.052937	0.289818
61	N	0.272926	0.02652	0.298541
62	C	0.26052	0.014899	0.004141
63	C	0.258455	0.030932	0.038059
64	C	0.269394	0.058543	0.029498
65	H	0.268059	0.070533	0.053297
66	C	0.249671	0.487188	0.010813
67	C	0.241233	0.444984	0.315897
68	C	0.227541	0.431512	0.355044
69	C	0.22551	0.447188	0.056119
70	H	0.292499	0.059943	0.259674
71	N	0.251499	0.471728	0.311753
72	C	0.236507	0.475122	0.05141
73	C	0.234575	0.49116	0.08529
74	C	0.24553	0.018928	0.078678
75	H	0.215601	0.438154	0.08483
76	H	0.243254	0.434748	0.289799
77	O	0.222816	0.480376	0.125155
78	H	0.203828	0.474992	0.121894
79	O	0.24392	0.033877	0.112382
80	H	0.226936	0.033685	0.108096
81	C	0.215509	0.401904	0.357537
82	H	0.231431	0.397038	0.353357
83	H	0.201779	0.393388	0.32929
84	C	0.292702	0.099212	0.981377
85	H	0.307665	0.109691	0.007392
86	H	0.276351	0.103367	0.986486
87	C	0.429708	0.211806	0.988466
88	C	0.446829	0.230528	0.289834
89	N	0.473247	0.246364	0.298557
90	C	0.484868	0.245572	0.00415
91	C	0.468837	0.227468	0.038063
92	C	0.441227	0.210798	0.029502
93	H	0.429235	0.197471	0.053301
94	C	0.012581	0.262436	0.010823
95	C	0.054782	0.296205	0.315912
96	C	0.068253	0.295987	0.35506
97	C	0.052581	0.278269	0.056125
98	H	0.439821	0.23252	0.259695
99	N	0.02804	0.279729	0.311769
100	C	0.024647	0.261332	0.051416
101	C	0.008611	0.243356	0.085291
102	C	0.48084	0.22654	0.078677
103	H	0.061614	0.277395	0.084838
104	H	0.065014	0.308473	0.289825
105	O	0.019395	0.242378	0.125153
106	H	0.024779	0.228774	0.121887
107	O	0.465892	0.20998	0.112381
108	H	0.466084	0.19319	0.10809
109	C	0.097861	0.313565	0.357557
110	H	0.102724	0.334353	0.353387
111	H	0.106378	0.308357	0.329301
112	C	0.400554	0.193444	0.98139
113	H	0.390077	0.197932	0.007403
114	H	0.396397	0.172938	0.986499
115	C	0.177152	0.315823	0.398096
116	C	0.149204	0.305399	0.398212
117	C	0.138482	0.322613	0.398122
118	C	0.156008	0.350563	0.398222
119	C	0.183943	0.361285	0.398112
120	C	0.194366	0.343759	0.398196
121	H	0.148334	0.363151	0.398749
122	H	0.214629	0.351433	0.398722
123	H	0.136616	0.285137	0.398732
124	N	0.188652	0.299231	0.399232
125	H	0.180831	0.286287	0.425711
126	N	0.200535	0.389374	0.399249
127	H	0.213483	0.394496	0.425724
128	N	0.110392	0.311115	0.399262
129	H	0.105269	0.318935	0.425741
130	C	0.319262	0.180976	0.267703
131	C	0.347521	0.194682	0.267399
132	C	0.361526	0.180506	0.267727
133	C	0.346974	0.152247	0.267428
134	C	0.318793	0.13824	0.267717
135	C	0.305087	0.152795	0.267414
136	H	0.357003	0.141824	0.2684
137	H	0.284636	0.142765	0.268378
138	H	0.357945	0.215134	0.268389
139	N	0.304546	0.194498	0.270565
140	H	0.310751	0.208586	0.245689
141	N	0.305269	0.110002	0.270579
142	H	0.291181	0.10212	0.245704
143	N	0.389765	0.195222	0.27059
144	H	0.397648	0.189014	0.245716
145	C	0.28796	0.217856	0.32177
146	C	0.269242	0.21626	0.623134
147	N	0.253408	0.226844	0.631856
148	C	0.254195	0.239252	0.337454
149	C	0.272294	0.241318	0.371371
150	C	0.288964	0.230378	0.362809
151	H	0.302288	0.23171	0.386611
152	C	0.237332	0.250102	0.344126
153	C	0.203567	0.25854	0.649209
154	C	0.203782	0.272224	0.688362
155	C	0.221495	0.274263	0.389431
156	H	0.267255	0.207266	0.592993
157	N	0.220043	0.248272	0.645066
158	C	0.238432	0.263266	0.384722
159	C	0.256402	0.2652	0.418602
160	C	0.273217	0.254246	0.41199
161	H	0.222365	0.284165	0.418145
162	H	0.191302	0.256508	0.623117
163	O	0.257375	0.276955	0.458468
164	H	0.270979	0.295943	0.455212
165	O	0.289771	0.25585	0.445697
166	H	0.306563	0.272832	0.441418
167	C	0.186204	0.284253	0.690858
168	H	0.165417	0.268332	0.686682
169	H	0.191414	0.297981	0.662606
170	C	0.306322	0.207064	0.314697
171	H	0.301835	0.192101	0.34071
172	H	0.326829	0.223414	0.319807
173	C	0.281913	0.070059	0.321788
174	C	0.283507	0.052937	0.62315
175	N	0.272926	0.02652	0.631876
176	C	0.26052	0.014899	0.337474
177	C	0.258455	0.030932	0.371391
178	C	0.269394	0.058543	0.362832
179	H	0.268059	0.070533	0.386631
180	C	0.249671	0.487188	0.344146
181	C	0.241233	0.444984	0.649229
182	C	0.227541	0.431512	0.688378
183	C	0.22551	0.447188	0.389451
184	H	0.292499	0.059943	0.593006
185	N	0.251499	0.471728	0.645086
186	C	0.236507	0.475122	0.384742
187	C	0.234575	0.49116	0.418622
188	C	0.24553	0.018928	0.41201
189	H	0.215601	0.438154	0.418162
190	H	0.243254	0.434748	0.62313
191	O	0.222816	0.480376	0.458488
192	H	0.203828	0.474992	0.455228
193	O	0.24392	0.033877	0.445717
194	H	0.226936	0.033685	0.441431
195	C	0.215509	0.401904	0.690871
196	H	0.231431	0.397038	0.686692
197	H	0.201779	0.393388	0.662623
198	C	0.292702	0.099212	0.314712
199	H	0.307665	0.109691	0.340723
200	H	0.276351	0.103367	0.319819
201	C	0.429708	0.211806	0.321798
202	C	0.446829	0.230528	0.623167
203	N	0.473247	0.246364	0.631889
204	C	0.484868	0.245572	0.337484
205	C	0.468837	0.227468	0.371397
206	C	0.441227	0.210798	0.362836
207	H	0.429235	0.197471	0.386635
208	C	0.012581	0.262436	0.344156
209	C	0.054782	0.296205	0.649246
210	C	0.068253	0.295987	0.688395
211	C	0.052581	0.278269	0.389457
212	H	0.439821	0.23252	0.593029
213	N	0.02804	0.279729	0.645103
214	C	0.024647	0.261332	0.384748
215	C	0.008611	0.243356	0.418625
216	C	0.48084	0.22654	0.41201
217	H	0.061614	0.277395	0.418172
218	H	0.065014	0.308473	0.623157
219	O	0.019395	0.242378	0.458488
220	H	0.024779	0.228774	0.455222
221	O	0.465892	0.20998	0.445714
222	H	0.466084	0.19319	0.441424
223	C	0.097861	0.313565	0.690888
224	H	0.102724	0.334353	0.686722
225	H	0.106378	0.308357	0.662633
226	C	0.400554	0.193444	0.314724
227	H	0.390077	0.197932	0.340736
228	H	0.396397	0.172938	0.319833
229	C	0.177152	0.315823	0.73143
230	C	0.149204	0.305399	0.731544
231	C	0.138482	0.322613	0.731457
232	C	0.156008	0.350563	0.731557
233	C	0.183943	0.361285	0.731447
234	C	0.194366	0.343759	0.731527
235	H	0.148334	0.363151	0.732083
236	H	0.214629	0.351433	0.732057
237	H	0.136616	0.285137	0.732067
238	N	0.188652	0.299231	0.732567
239	H	0.180831	0.286287	0.759042
240	N	0.200535	0.389374	0.732583
241	H	0.213483	0.394496	0.759055
242	N	0.110392	0.311115	0.732593
243	H	0.105269	0.318935	0.759075
244	C	0.319262	0.180976	0.601035
245	C	0.347521	0.194682	0.600731
246	C	0.361526	0.180506	0.601061
247	C	0.346974	0.152247	0.600761
248	C	0.318793	0.13824	0.601051
249	C	0.305087	0.152795	0.600748
250	H	0.357003	0.141824	0.601734
251	H	0.284636	0.142765	0.601711
252	H	0.357945	0.215134	0.601721
253	N	0.304546	0.194498	0.603897
254	H	0.310751	0.208586	0.579022
255	N	0.305269	0.110002	0.603911
256	H	0.291181	0.10212	0.579035
257	N	0.389765	0.195222	0.603924
258	H	0.397648	0.189014	0.579049
259	C	0.28796	0.217856	0.655105
260	C	0.269242	0.21626	0.956468
261	N	0.253408	0.226844	0.96519
262	C	0.254195	0.239252	0.670785
263	C	0.272294	0.241318	0.704702
264	C	0.288964	0.230378	0.696144
265	H	0.302288	0.23171	0.719946
266	C	0.237332	0.250102	0.677457
267	C	0.203567	0.25854	0.982543
268	C	0.203782	0.272224	0.021696
269	C	0.221495	0.274263	0.722765
270	H	0.267255	0.207266	0.926324
271	N	0.220043	0.248272	0.978401
272	C	0.238432	0.263266	0.718056
273	C	0.256402	0.2652	0.751936
274	C	0.273217	0.254246	0.745321
275	H	0.222365	0.284165	0.75148
276	H	0.191302	0.256508	0.956452
277	O	0.257375	0.276955	0.791802
278	H	0.270979	0.295943	0.788546
279	O	0.289771	0.25585	0.779031
280	H	0.306563	0.272832	0.774749
281	C	0.186204	0.284253	0.024191
282	H	0.165417	0.268332	0.020017
283	H	0.191414	0.297981	0.995938
284	C	0.306322	0.207064	0.648029
285	H	0.301835	0.192101	0.674044
286	H	0.326829	0.223414	0.653142
287	C	0.281913	0.070059	0.655121
288	C	0.283507	0.052937	0.956485
289	N	0.272926	0.02652	0.965207
290	C	0.26052	0.014899	0.670808
291	C	0.258455	0.030932	0.704725
292	C	0.269394	0.058543	0.696164
293	H	0.268059	0.070533	0.719962
294	C	0.249671	0.487188	0.67748
295	C	0.241233	0.444984	0.982563
296	C	0.227541	0.431512	0.021712
297	C	0.22551	0.447188	0.722785
298	H	0.292499	0.059943	0.926341
299	N	0.251499	0.471728	0.978418
300	C	0.236507	0.475122	0.718076
301	C	0.234575	0.49116	0.751956
302	C	0.24553	0.018928	0.745344
303	H	0.215601	0.438154	0.751497
304	H	0.243254	0.434748	0.956465
305	O	0.222816	0.480376	0.791822
306	H	0.203828	0.474992	0.78856
307	O	0.24392	0.033877	0.779048
308	H	0.226936	0.033685	0.774762
309	C	0.215509	0.401904	0.024205
310	H	0.231431	0.397038	0.020024
311	H	0.201779	0.393388	0.995958
312	C	0.292702	0.099212	0.648046
313	H	0.307665	0.109691	0.674058
314	H	0.276351	0.103367	0.653152
315	C	0.429708	0.211806	0.655131
316	C	0.446829	0.230528	0.956502
317	N	0.473247	0.246364	0.965223
318	C	0.484868	0.245572	0.670818
319	C	0.468837	0.227468	0.704729
320	C	0.441227	0.210798	0.69617
321	H	0.429235	0.197471	0.719969
322	C	0.012581	0.262436	0.67749
323	C	0.054782	0.296205	0.98258
324	C	0.068253	0.295987	0.021729
325	C	0.052581	0.278269	0.722792
326	H	0.439821	0.23252	0.926361
327	N	0.02804	0.279729	0.978434
328	C	0.024647	0.261332	0.718083
329	C	0.008611	0.243356	0.751956
330	C	0.48084	0.22654	0.745344
331	H	0.061614	0.277395	0.751503
332	H	0.065014	0.308473	0.956492
333	O	0.019395	0.242378	0.791819
334	H	0.024779	0.228774	0.788553
335	O	0.465892	0.20998	0.779048
336	H	0.466084	0.19319	0.774756
337	C	0.097861	0.313565	0.024223
338	H	0.102724	0.334353	0.020054
339	H	0.106378	0.308357	0.995968
340	C	0.400554	0.193444	0.648056
341	H	0.390077	0.197932	0.674071
342	H	0.396397	0.172938	0.653168
343	C	0.177152	0.815823	0.064762
344	C	0.149205	0.805401	0.064879
345	C	0.138483	0.822614	0.06479
346	C	0.156007	0.850562	0.06489
347	C	0.183943	0.861284	0.06478
348	C	0.194366	0.843758	0.064861
349	H	0.148334	0.86315	0.065417
350	H	0.214628	0.851432	0.065391
351	H	0.136615	0.785137	0.065399
352	N	0.188653	0.799233	0.065899
353	H	0.180831	0.786287	0.092377
354	N	0.200535	0.889376	0.065916
355	H	0.213485	0.894498	0.092389
356	N	0.110391	0.811115	0.065928
357	H	0.105269	0.818937	0.092408
358	C	0.319263	0.680976	0.934369
359	C	0.347522	0.694682	0.934066
360	C	0.361527	0.680506	0.934392
361	C	0.346973	0.652246	0.934096
362	C	0.318792	0.63824	0.934382
363	C	0.305087	0.652794	0.934082
364	H	0.357002	0.641824	0.935066
365	H	0.284635	0.642764	0.935046
366	H	0.357945	0.715133	0.935056
367	N	0.304546	0.694498	0.937232
368	H	0.310752	0.708586	0.912357
369	N	0.305269	0.610002	0.937245
370	H	0.291181	0.602121	0.91237
371	N	0.389766	0.695222	0.937255
372	H	0.397647	0.689014	0.912383
373	C	0.287959	0.717855	0.988436
374	C	0.269242	0.716259	0.289801
375	N	0.253408	0.726843	0.298523
376	C	0.254196	0.739253	0.00412
377	C	0.272294	0.741319	0.038037
378	C	0.288965	0.730379	0.029477
379	H	0.302288	0.731711	0.053279
380	C	0.237332	0.750101	0.010792
381	C	0.203567	0.758539	0.315876
382	C	0.203783	0.772225	0.35503
383	C	0.221494	0.774263	0.056097
384	H	0.267255	0.707266	0.259659
385	N	0.220044	0.748273	0.311733
386	C	0.238433	0.763267	0.051388
387	C	0.256402	0.765199	0.085268
388	C	0.273217	0.754245	0.078656
389	H	0.222366	0.784167	0.084814
390	H	0.191302	0.756509	0.289786
391	O	0.257375	0.776955	0.125135
392	H	0.270979	0.795943	0.121878
393	O	0.289771	0.755851	0.112364
394	H	0.306564	0.772833	0.108083
395	C	0.186204	0.784255	0.357523
396	H	0.165417	0.768331	0.353351
397	H	0.191415	0.797981	0.329273
398	C	0.306323	0.707066	0.981364
399	H	0.301835	0.692102	0.007377
400	H	0.32683	0.723415	0.986473
401	C	0.281914	0.570059	0.988456
402	C	0.283508	0.552937	0.289818
403	N	0.272926	0.526519	0.298541
404	C	0.26052	0.514899	0.004141
405	C	0.258455	0.530931	0.038059
406	C	0.269395	0.558543	0.029498
407	H	0.268059	0.570533	0.053297
408	C	0.249671	0.987187	0.010813
409	C	0.241233	0.944985	0.315897
410	C	0.227542	0.931514	0.355044
411	C	0.225509	0.947187	0.056119
412	H	0.2925	0.559943	0.259674
413	N	0.251499	0.971727	0.311753
414	C	0.236506	0.975121	0.05141
415	C	0.234574	0.991159	0.08529
416	C	0.245531	0.518929	0.078678
417	H	0.215601	0.938153	0.08483
418	H	0.243255	0.934749	0.289799
419	O	0.222816	0.980377	0.125155
420	H	0.203829	0.974993	0.121894
421	O	0.24392	0.533877	0.112382
422	H	0.226937	0.533685	0.108096
423	C	0.21551	0.901904	0.357537
424	H	0.231431	0.897038	0.353357
425	H	0.20178	0.89339	0.32929
426	C	0.292702	0.599213	0.981377
427	H	0.307665	0.60969	0.007392
428	H	0.27635	0.603366	0.986486
429	C	0.429709	0.711808	0.988466
430	C	0.446829	0.730529	0.289834
431	N	0.473246	0.746363	0.298557
432	C	0.484868	0.745571	0.00415
433	C	0.468837	0.727467	0.038063
434	C	0.441226	0.710798	0.029502
435	H	0.429236	0.697472	0.053301
436	C	0.012582	0.762435	0.010823
437	C	0.054783	0.796207	0.315912
438	C	0.068254	0.795987	0.35506
439	C	0.052581	0.778269	0.056125
440	H	0.439822	0.732519	0.259695
441	N	0.028039	0.779729	0.311769
442	C	0.024646	0.761331	0.051416
443	C	0.00861	0.743355	0.085291
444	C	0.480842	0.726541	0.078677
445	H	0.061613	0.777395	0.084838
446	H	0.065015	0.808475	0.289825
447	O	0.019395	0.742377	0.125153
448	H	0.024779	0.728775	0.121887
449	O	0.465894	0.709982	0.112381
450	H	0.466084	0.69319	0.10809
451	C	0.09786	0.813565	0.357557
452	H	0.102724	0.834352	0.353387
453	H	0.106379	0.808359	0.329301
454	C	0.400554	0.693444	0.98139
455	H	0.390077	0.697932	0.007403
456	H	0.396397	0.672938	0.986499
457	C	0.177152	0.815823	0.398096
458	C	0.149205	0.805401	0.398212
459	C	0.138483	0.822614	0.398122
460	C	0.156007	0.850562	0.398222
461	C	0.183943	0.861284	0.398112
462	C	0.194366	0.843758	0.398196
463	H	0.148334	0.86315	0.398749
464	H	0.214628	0.851432	0.398722
465	H	0.136615	0.785137	0.398732
466	N	0.188653	0.799233	0.399232
467	H	0.180831	0.786287	0.425711
468	N	0.200535	0.889376	0.399249
469	H	0.213485	0.894498	0.425724
470	N	0.110391	0.811115	0.399262
471	H	0.105269	0.818937	0.425741
472	C	0.319263	0.680976	0.267703
473	C	0.347522	0.694682	0.267399
474	C	0.361527	0.680506	0.267727
475	C	0.346973	0.652246	0.267428
476	C	0.318792	0.63824	0.267717
477	C	0.305087	0.652794	0.267414
478	H	0.357002	0.641824	0.2684
479	H	0.284635	0.642764	0.268378
480	H	0.357945	0.715133	0.268389
481	N	0.304546	0.694498	0.270565
482	H	0.310752	0.708586	0.245689
483	N	0.305269	0.610002	0.270579
484	H	0.291181	0.602121	0.245704
485	N	0.389766	0.695222	0.27059
486	H	0.397647	0.689014	0.245716
487	C	0.287959	0.717855	0.32177
488	C	0.269242	0.716259	0.623134
489	N	0.253408	0.726843	0.631856
490	C	0.254196	0.739253	0.337454
491	C	0.272294	0.741319	0.371371
492	C	0.288965	0.730379	0.362809
493	H	0.302288	0.731711	0.386611
494	C	0.237332	0.750101	0.344126
495	C	0.203567	0.758539	0.649209
496	C	0.203783	0.772225	0.688362
497	C	0.221494	0.774263	0.389431
498	H	0.267255	0.707266	0.592993
499	N	0.220044	0.748273	0.645066
500	C	0.238433	0.763267	0.384722
501	C	0.256402	0.765199	0.418602
502	C	0.273217	0.754245	0.41199
503	H	0.222366	0.784167	0.418145
504	H	0.191302	0.756509	0.623117
505	O	0.257375	0.776955	0.458468
506	H	0.270979	0.795943	0.455212
507	O	0.289771	0.755851	0.445697
508	H	0.306564	0.772833	0.441418
509	C	0.186204	0.784255	0.690858
510	H	0.165417	0.768331	0.686682
511	H	0.191415	0.797981	0.662606
512	C	0.306323	0.707066	0.314697
513	H	0.301835	0.692102	0.34071
514	H	0.32683	0.723415	0.319807
515	C	0.281914	0.570059	0.321788
516	C	0.283508	0.552937	0.62315
517	N	0.272926	0.526519	0.631876
518	C	0.26052	0.514899	0.337474
519	C	0.258455	0.530931	0.371391
520	C	0.269395	0.558543	0.362832
521	H	0.268059	0.570533	0.386631
522	C	0.249671	0.987187	0.344146
523	C	0.241233	0.944985	0.649229
524	C	0.227542	0.931514	0.688378
525	C	0.225509	0.947187	0.389451
526	H	0.2925	0.559943	0.593006
527	N	0.251499	0.971727	0.645086
528	C	0.236506	0.975121	0.384742
529	C	0.234574	0.991159	0.418622
530	C	0.245531	0.518929	0.41201
531	H	0.215601	0.938153	0.418162
532	H	0.243255	0.934749	0.62313
533	O	0.222816	0.980377	0.458488
534	H	0.203829	0.974993	0.455228
535	O	0.24392	0.533877	0.445717
536	H	0.226937	0.533685	0.441431
537	C	0.21551	0.901904	0.690871
538	H	0.231431	0.897038	0.686692
539	H	0.20178	0.89339	0.662623
540	C	0.292702	0.599213	0.314712
541	H	0.307665	0.60969	0.340723
542	H	0.27635	0.603366	0.319819
543	C	0.429709	0.711808	0.321798
544	C	0.446829	0.730529	0.623167
545	N	0.473246	0.746363	0.631889
546	C	0.484868	0.745571	0.337484
547	C	0.468837	0.727467	0.371397
548	C	0.441226	0.710798	0.362836
549	H	0.429236	0.697472	0.386635
550	C	0.012582	0.762435	0.344156
551	C	0.054783	0.796207	0.649246
552	C	0.068254	0.795987	0.688395
553	C	0.052581	0.778269	0.389457
554	H	0.439822	0.732519	0.593029
555	N	0.028039	0.779729	0.645103
556	C	0.024646	0.761331	0.384748
557	C	0.00861	0.743355	0.418625
558	C	0.480842	0.726541	0.41201
559	H	0.061613	0.777395	0.418172
560	H	0.065015	0.808475	0.623157
561	O	0.019395	0.742377	0.458488
562	H	0.024779	0.728775	0.455222
563	O	0.465894	0.709982	0.445714
564	H	0.466084	0.69319	0.441424
565	C	0.09786	0.813565	0.690888
566	H	0.102724	0.834352	0.686722
567	H	0.106379	0.808359	0.662633
568	C	0.400554	0.693444	0.314724
569	H	0.390077	0.697932	0.340736
570	H	0.396397	0.672938	0.319833
571	C	0.177152	0.815823	0.73143
572	C	0.149205	0.805401	0.731544
573	C	0.138483	0.822614	0.731457
574	C	0.156007	0.850562	0.731557
575	C	0.183943	0.861284	0.731447
576	C	0.194366	0.843758	0.731527
577	H	0.148334	0.86315	0.732083
578	H	0.214628	0.851432	0.732057
579	H	0.136615	0.785137	0.732067
580	N	0.188653	0.799233	0.732567
581	H	0.180831	0.786287	0.759042
582	N	0.200535	0.889376	0.732583
583	H	0.213485	0.894498	0.759055
584	N	0.110391	0.811115	0.732593
585	H	0.105269	0.818937	0.759075
586	C	0.319263	0.680976	0.601035
587	C	0.347522	0.694682	0.600731
588	C	0.361527	0.680506	0.601061
589	C	0.346973	0.652246	0.600761
590	C	0.318792	0.63824	0.601051
591	C	0.305087	0.652794	0.600748
592	H	0.357002	0.641824	0.601734
593	H	0.284635	0.642764	0.601711
594	H	0.357945	0.715133	0.601721
595	N	0.304546	0.694498	0.603897
596	H	0.310752	0.708586	0.579022
597	N	0.305269	0.610002	0.603911
598	H	0.291181	0.602121	0.579035
599	N	0.389766	0.695222	0.603924
600	H	0.397647	0.689014	0.579049
601	C	0.287959	0.717855	0.655105
602	C	0.269242	0.716259	0.956468
603	N	0.253408	0.726843	0.96519
604	C	0.254196	0.739253	0.670785
605	C	0.272294	0.741319	0.704702
606	C	0.288965	0.730379	0.696144
607	H	0.302288	0.731711	0.719946
608	C	0.237332	0.750101	0.677457
609	C	0.203567	0.758539	0.982543
610	C	0.203783	0.772225	0.021696
611	C	0.221494	0.774263	0.722765
612	H	0.267255	0.707266	0.926324
613	N	0.220044	0.748273	0.978401
614	C	0.238433	0.763267	0.718056
615	C	0.256402	0.765199	0.751936
616	C	0.273217	0.754245	0.745321
617	H	0.222366	0.784167	0.75148
618	H	0.191302	0.756509	0.956452
619	O	0.257375	0.776955	0.791802
620	H	0.270979	0.795943	0.788546
621	O	0.289771	0.755851	0.779031
622	H	0.306564	0.772833	0.774749
623	C	0.186204	0.784255	0.024191
624	H	0.165417	0.768331	0.020017
625	H	0.191415	0.797981	0.995938
626	C	0.306323	0.707066	0.648029
627	H	0.301835	0.692102	0.674044
628	H	0.32683	0.723415	0.653142
629	C	0.281914	0.570059	0.655121
630	C	0.283508	0.552937	0.956485
631	N	0.272926	0.526519	0.965207
632	C	0.26052	0.514899	0.670808
633	C	0.258455	0.530931	0.704725
634	C	0.269395	0.558543	0.696164
635	H	0.268059	0.570533	0.719962
636	C	0.249671	0.987187	0.67748
637	C	0.241233	0.944985	0.982563
638	C	0.227542	0.931514	0.021712
639	C	0.225509	0.947187	0.722785
640	H	0.2925	0.559943	0.926341
641	N	0.251499	0.971727	0.978418
642	C	0.236506	0.975121	0.718076
643	C	0.234574	0.991159	0.751956
644	C	0.245531	0.518929	0.745344
645	H	0.215601	0.938153	0.751497
646	H	0.243255	0.934749	0.956465
647	O	0.222816	0.980377	0.791822
648	H	0.203829	0.974993	0.78856
649	O	0.24392	0.533877	0.779048
650	H	0.226937	0.533685	0.774762
651	C	0.21551	0.901904	0.024205
652	H	0.231431	0.897038	0.020024
653	H	0.20178	0.89339	0.995958
654	C	0.292702	0.599213	0.648046
655	H	0.307665	0.60969	0.674058
656	H	0.27635	0.603366	0.653152
657	C	0.429709	0.711808	0.655131
658	C	0.446829	0.730529	0.956502
659	N	0.473246	0.746363	0.965223
660	C	0.484868	0.745571	0.670818
661	C	0.468837	0.727467	0.704729
662	C	0.441226	0.710798	0.69617
663	H	0.429236	0.697472	0.719969
664	C	0.012582	0.762435	0.67749
665	C	0.054783	0.796207	0.98258
666	C	0.068254	0.795987	0.021729
667	C	0.052581	0.778269	0.722792
668	H	0.439822	0.732519	0.926361
669	N	0.028039	0.779729	0.978434
670	C	0.024646	0.761331	0.718083
671	C	0.00861	0.743355	0.751956
672	C	0.480842	0.726541	0.745344
673	H	0.061613	0.777395	0.751503
674	H	0.065015	0.808475	0.956492
675	O	0.019395	0.742377	0.791819
676	H	0.024779	0.728775	0.788553
677	O	0.465894	0.709982	0.779048
678	H	0.466084	0.69319	0.774756
679	C	0.09786	0.813565	0.024223
680	H	0.102724	0.834352	0.020054
681	H	0.106379	0.808359	0.995968
682	C	0.400554	0.693444	0.648056
683	H	0.390077	0.697932	0.674071
684	H	0.396397	0.672938	0.653168
685	C	0.677153	0.315823	0.064762
686	C	0.649203	0.305399	0.064879
687	C	0.638482	0.322613	0.06479
688	C	0.656007	0.350563	0.06489
689	C	0.683944	0.361285	0.06478
690	C	0.694366	0.343759	0.064861
691	H	0.648332	0.363151	0.065417
692	H	0.714628	0.351433	0.065391
693	H	0.636616	0.285137	0.065399
694	N	0.688652	0.299231	0.065899
695	H	0.680831	0.286287	0.092377
696	N	0.700535	0.389374	0.065916
697	H	0.713483	0.394496	0.092389
698	N	0.610391	0.311115	0.065928
699	H	0.605269	0.318935	0.092408
700	C	0.819262	0.180976	0.934369
701	C	0.847521	0.194682	0.934066
702	C	0.861526	0.180506	0.934392
703	C	0.846972	0.152247	0.934096
704	C	0.818791	0.13824	0.934382
705	C	0.805087	0.152795	0.934082
706	H	0.857003	0.141824	0.935066
707	H	0.784636	0.142765	0.935046
708	H	0.857945	0.215134	0.935056
709	N	0.804546	0.194498	0.937232
710	H	0.810751	0.208586	0.912357
711	N	0.805268	0.110002	0.937245
712	H	0.791181	0.10212	0.91237
713	N	0.889765	0.195222	0.937255
714	H	0.897646	0.189014	0.912383
715	C	0.787958	0.217856	0.988436
716	C	0.769242	0.21626	0.289801
717	N	0.753407	0.226844	0.298523
718	C	0.754195	0.239252	0.00412
719	C	0.772293	0.241318	0.038037
720	C	0.788964	0.230378	0.029477
721	H	0.802288	0.23171	0.053279
722	C	0.737332	0.250102	0.010792
723	C	0.703567	0.25854	0.315876
724	C	0.703781	0.272224	0.35503
725	C	0.721494	0.274263	0.056097
726	H	0.767255	0.207266	0.259659
727	N	0.720042	0.248272	0.311733
728	C	0.738432	0.263266	0.051388
729	C	0.756402	0.2652	0.085268
730	C	0.773216	0.254246	0.078656
731	H	0.722364	0.284165	0.084814
732	H	0.691302	0.256508	0.289786
733	O	0.757375	0.276955	0.125135
734	H	0.770979	0.295943	0.121878
735	O	0.78977	0.25585	0.112364
736	H	0.806562	0.272832	0.108083
737	C	0.686203	0.284253	0.357523
738	H	0.665417	0.268332	0.353351
739	H	0.691413	0.297981	0.329273
740	C	0.806322	0.207064	0.981364
741	H	0.801835	0.192101	0.007377
742	H	0.826827	0.223414	0.986473
743	C	0.781913	0.070059	0.988456
744	C	0.783507	0.052937	0.289818
745	N	0.772926	0.02652	0.298541
746	C	0.760519	0.014899	0.004141
747	C	0.758455	0.030932	0.038059
748	C	0.769394	0.058543	0.029498
749	H	0.768059	0.070533	0.053297
750	C	0.74967	0.487188	0.010813
751	C	0.741233	0.444984	0.315897
752	C	0.727541	0.431512	0.355044
753	C	0.72551	0.447188	0.056119
754	H	0.792499	0.059943	0.259674
755	N	0.751499	0.471728	0.311753
756	C	0.736506	0.475122	0.05141
757	C	0.734574	0.49116	0.08529
758	C	0.74553	0.018928	0.078678
759	H	0.715601	0.438154	0.08483
760	H	0.743252	0.434748	0.289799
761	O	0.722816	0.480376	0.125155
762	H	0.703827	0.474992	0.121894
763	O	0.74392	0.033877	0.112382
764	H	0.726936	0.033685	0.108096
765	C	0.715508	0.401904	0.357537
766	H	0.731431	0.397038	0.353357
767	H	0.701779	0.393388	0.32929
768	C	0.792701	0.099212	0.981377
769	H	0.807665	0.109691	0.007392
770	H	0.776351	0.103367	0.986486
771	C	0.929708	0.211806	0.988466
772	C	0.946827	0.230528	0.289834
773	N	0.973245	0.246364	0.298557
774	C	0.984868	0.245572	0.00415
775	C	0.968835	0.227468	0.038063
776	C	0.941227	0.210798	0.029502
777	H	0.929235	0.197471	0.053301
778	C	0.51258	0.262436	0.010823
779	C	0.554781	0.296205	0.315912
780	C	0.568253	0.295987	0.35506
781	C	0.552582	0.278269	0.056125
782	H	0.939821	0.23252	0.259695
783	N	0.528039	0.279729	0.311769
784	C	0.524646	0.261332	0.051416
785	C	0.508611	0.243356	0.085291
786	C	0.98084	0.22654	0.078677
787	H	0.561614	0.277395	0.084838
788	H	0.565014	0.308473	0.289825
789	O	0.519394	0.242378	0.125153
790	H	0.524778	0.228774	0.121887
791	O	0.965892	0.20998	0.112381
792	H	0.966084	0.19319	0.10809
793	C	0.597861	0.313565	0.357557
794	H	0.602724	0.334353	0.353387
795	H	0.606378	0.308357	0.329301
796	C	0.900554	0.193444	0.98139
797	H	0.890077	0.197932	0.007403
798	H	0.896395	0.172938	0.986499
799	C	0.677153	0.315823	0.398096
800	C	0.649203	0.305399	0.398212
801	C	0.638482	0.322613	0.398122
802	C	0.656007	0.350563	0.398222
803	C	0.683944	0.361285	0.398112
804	C	0.694366	0.343759	0.398196
805	H	0.648332	0.363151	0.398749
806	H	0.714628	0.351433	0.398722
807	H	0.636616	0.285137	0.398732
808	N	0.688652	0.299231	0.399232
809	H	0.680831	0.286287	0.425711
810	N	0.700535	0.389374	0.399249
811	H	0.713483	0.394496	0.425724
812	N	0.610391	0.311115	0.399262
813	H	0.605269	0.318935	0.425741
814	C	0.819262	0.180976	0.267703
815	C	0.847521	0.194682	0.267399
816	C	0.861526	0.180506	0.267727
817	C	0.846972	0.152247	0.267428
818	C	0.818791	0.13824	0.267717
819	C	0.805087	0.152795	0.267414
820	H	0.857003	0.141824	0.2684
821	H	0.784636	0.142765	0.268378
822	H	0.857945	0.215134	0.268389
823	N	0.804546	0.194498	0.270565
824	H	0.810751	0.208586	0.245689
825	N	0.805268	0.110002	0.270579
826	H	0.791181	0.10212	0.245704
827	N	0.889765	0.195222	0.27059
828	H	0.897646	0.189014	0.245716
829	C	0.787958	0.217856	0.32177
830	C	0.769242	0.21626	0.623134
831	N	0.753407	0.226844	0.631856
832	C	0.754195	0.239252	0.337454
833	C	0.772293	0.241318	0.371371
834	C	0.788964	0.230378	0.362809
835	H	0.802288	0.23171	0.386611
836	C	0.737332	0.250102	0.344126
837	C	0.703567	0.25854	0.649209
838	C	0.703781	0.272224	0.688362
839	C	0.721494	0.274263	0.389431
840	H	0.767255	0.207266	0.592993
841	N	0.720042	0.248272	0.645066
842	C	0.738432	0.263266	0.384722
843	C	0.756402	0.2652	0.418602
844	C	0.773216	0.254246	0.41199
845	H	0.722364	0.284165	0.418145
846	H	0.691302	0.256508	0.623117
847	O	0.757375	0.276955	0.458468
848	H	0.770979	0.295943	0.455212
849	O	0.78977	0.25585	0.445697
850	H	0.806562	0.272832	0.441418
851	C	0.686203	0.284253	0.690858
852	H	0.665417	0.268332	0.686682
853	H	0.691413	0.297981	0.662606
854	C	0.806322	0.207064	0.314697
855	H	0.801835	0.192101	0.34071
856	H	0.826827	0.223414	0.319807
857	C	0.781913	0.070059	0.321788
858	C	0.783507	0.052937	0.62315
859	N	0.772926	0.02652	0.631876
860	C	0.760519	0.014899	0.337474
861	C	0.758455	0.030932	0.371391
862	C	0.769394	0.058543	0.362832
863	H	0.768059	0.070533	0.386631
864	C	0.74967	0.487188	0.344146
865	C	0.741233	0.444984	0.649229
866	C	0.727541	0.431512	0.688378
867	C	0.72551	0.447188	0.389451
868	H	0.792499	0.059943	0.593006
869	N	0.751499	0.471728	0.645086
870	C	0.736506	0.475122	0.384742
871	C	0.734574	0.49116	0.418622
872	C	0.74553	0.018928	0.41201
873	H	0.715601	0.438154	0.418162
874	H	0.743252	0.434748	0.62313
875	O	0.722816	0.480376	0.458488
876	H	0.703827	0.474992	0.455228
877	O	0.74392	0.033877	0.445717
878	H	0.726936	0.033685	0.441431
879	C	0.715508	0.401904	0.690871
880	H	0.731431	0.397038	0.686692
881	H	0.701779	0.393388	0.662623
882	C	0.792701	0.099212	0.314712
883	H	0.807665	0.109691	0.340723
884	H	0.776351	0.103367	0.319819
885	C	0.929708	0.211806	0.321798
886	C	0.946827	0.230528	0.623167
887	N	0.973245	0.246364	0.631889
888	C	0.984868	0.245572	0.337484
889	C	0.968835	0.227468	0.371397
890	C	0.941227	0.210798	0.362836
891	H	0.929235	0.197471	0.386635
892	C	0.51258	0.262436	0.344156
893	C	0.554781	0.296205	0.649246
894	C	0.568253	0.295987	0.688395
895	C	0.552582	0.278269	0.389457
896	H	0.939821	0.23252	0.593029
897	N	0.528039	0.279729	0.645103
898	C	0.524646	0.261332	0.384748
899	C	0.508611	0.243356	0.418625
900	C	0.98084	0.22654	0.41201
901	H	0.561614	0.277395	0.418172
902	H	0.565014	0.308473	0.623157
903	O	0.519394	0.242378	0.458488
904	H	0.524778	0.228774	0.455222
905	O	0.965892	0.20998	0.445714
906	H	0.966084	0.19319	0.441424
907	C	0.597861	0.313565	0.690888
908	H	0.602724	0.334353	0.686722
909	H	0.606378	0.308357	0.662633
910	C	0.900554	0.193444	0.314724
911	H	0.890077	0.197932	0.340736
912	H	0.896395	0.172938	0.319833
913	C	0.677153	0.315823	0.73143
914	C	0.649203	0.305399	0.731544
915	C	0.638482	0.322613	0.731457
916	C	0.656007	0.350563	0.731557
917	C	0.683944	0.361285	0.731447
918	C	0.694366	0.343759	0.731527
919	H	0.648332	0.363151	0.732083
920	H	0.714628	0.351433	0.732057
921	H	0.636616	0.285137	0.732067
922	N	0.688652	0.299231	0.732567
923	H	0.680831	0.286287	0.759042
924	N	0.700535	0.389374	0.732583
925	H	0.713483	0.394496	0.759055
926	N	0.610391	0.311115	0.732593
927	H	0.605269	0.318935	0.759075
928	C	0.819262	0.180976	0.601035
929	C	0.847521	0.194682	0.600731
930	C	0.861526	0.180506	0.601061
931	C	0.846972	0.152247	0.600761
932	C	0.818791	0.13824	0.601051
933	C	0.805087	0.152795	0.600748
934	H	0.857003	0.141824	0.601734
935	H	0.784636	0.142765	0.601711
936	H	0.857945	0.215134	0.601721
937	N	0.804546	0.194498	0.603897
938	H	0.810751	0.208586	0.579022
939	N	0.805268	0.110002	0.603911
940	H	0.791181	0.10212	0.579035
941	N	0.889765	0.195222	0.603924
942	H	0.897646	0.189014	0.579049
943	C	0.787958	0.217856	0.655105
944	C	0.769242	0.21626	0.956468
945	N	0.753407	0.226844	0.96519
946	C	0.754195	0.239252	0.670785
947	C	0.772293	0.241318	0.704702
948	C	0.788964	0.230378	0.696144
949	H	0.802288	0.23171	0.719946
950	C	0.737332	0.250102	0.677457
951	C	0.703567	0.25854	0.982543
952	C	0.703781	0.272224	0.021696
953	C	0.721494	0.274263	0.722765
954	H	0.767255	0.207266	0.926324
955	N	0.720042	0.248272	0.978401
956	C	0.738432	0.263266	0.718056
957	C	0.756402	0.2652	0.751936
958	C	0.773216	0.254246	0.745321
959	H	0.722364	0.284165	0.75148
960	H	0.691302	0.256508	0.956452
961	O	0.757375	0.276955	0.791802
962	H	0.770979	0.295943	0.788546
963	O	0.78977	0.25585	0.779031
964	H	0.806562	0.272832	0.774749
965	C	0.686203	0.284253	0.024191
966	H	0.665417	0.268332	0.020017
967	H	0.691413	0.297981	0.995938
968	C	0.806322	0.207064	0.648029
969	H	0.801835	0.192101	0.674044
970	H	0.826827	0.223414	0.653142
971	C	0.781913	0.070059	0.655121
972	C	0.783507	0.052937	0.956485
973	N	0.772926	0.02652	0.965207
974	C	0.760519	0.014899	0.670808
975	C	0.758455	0.030932	0.704725
976	C	0.769394	0.058543	0.696164
977	H	0.768059	0.070533	0.719962
978	C	0.74967	0.487188	0.67748
979	C	0.741233	0.444984	0.982563
980	C	0.727541	0.431512	0.021712
981	C	0.72551	0.447188	0.722785
982	H	0.792499	0.059943	0.926341
983	N	0.751499	0.471728	0.978418
984	C	0.736506	0.475122	0.718076
985	C	0.734574	0.49116	0.751956
986	C	0.74553	0.018928	0.745344
987	H	0.715601	0.438154	0.751497
988	H	0.743252	0.434748	0.956465
989	O	0.722816	0.480376	0.791822
990	H	0.703827	0.474992	0.78856
991	O	0.74392	0.033877	0.779048
992	H	0.726936	0.033685	0.774762
993	C	0.715508	0.401904	0.024205
994	H	0.731431	0.397038	0.020024
995	H	0.701779	0.393388	0.995958
996	C	0.792701	0.099212	0.648046
997	H	0.807665	0.109691	0.674058
998	H	0.776351	0.103367	0.653152
999	C	0.929708	0.211806	0.655131
1000	C	0.946827	0.230528	0.956502
1001	N	0.973245	0.246364	0.965223
1002	C	0.984868	0.245572	0.670818
1003	C	0.968835	0.227468	0.704729
1004	C	0.941227	0.210798	0.69617
1005	H	0.929235	0.197471	0.719969
1006	C	0.51258	0.262436	0.67749
1007	C	0.554781	0.296205	0.98258
1008	C	0.568253	0.295987	0.021729
1009	C	0.552582	0.278269	0.722792
1010	H	0.939821	0.23252	0.926361
1011	N	0.528039	0.279729	0.978434
1012	C	0.524646	0.261332	0.718083
1013	C	0.508611	0.243356	0.751956
1014	C	0.98084	0.22654	0.745344
1015	H	0.561614	0.277395	0.751503
1016	H	0.565014	0.308473	0.956492
1017	O	0.519394	0.242378	0.791819
1018	H	0.524778	0.228774	0.788553
1019	O	0.965892	0.20998	0.779048
1020	H	0.966084	0.19319	0.774756
1021	C	0.597861	0.313565	0.024223
1022	H	0.602724	0.334353	0.020054
1023	H	0.606378	0.308357	0.995968
1024	C	0.900554	0.193444	0.648056
1025	H	0.890077	0.197932	0.674071
1026	H	0.896395	0.172938	0.653168
1027	C	0.677152	0.815823	0.064762
1028	C	0.649205	0.805401	0.064879
1029	C	0.638483	0.822614	0.06479
1030	C	0.656007	0.850562	0.06489
1031	C	0.683943	0.861284	0.06478
1032	C	0.694366	0.843758	0.064861
1033	H	0.648334	0.86315	0.065417
1034	H	0.714628	0.851432	0.065391
1035	H	0.636615	0.785137	0.065399
1036	N	0.688653	0.799233	0.065899
1037	H	0.680831	0.786287	0.092377
1038	N	0.700535	0.889376	0.065916
1039	H	0.713483	0.894498	0.092389
1040	N	0.610391	0.811115	0.065928
1041	H	0.605269	0.818937	0.092408
1042	C	0.819262	0.680976	0.934369
1043	C	0.847521	0.694682	0.934066
1044	C	0.861526	0.680506	0.934392
1045	C	0.846972	0.652246	0.934096
1046	C	0.818791	0.63824	0.934382
1047	C	0.805086	0.652794	0.934082
1048	H	0.857002	0.641824	0.935066
1049	H	0.784635	0.642764	0.935046
1050	H	0.857944	0.715133	0.935056
1051	N	0.804546	0.694498	0.937232
1052	H	0.810751	0.708586	0.912357
1053	N	0.80527	0.610002	0.937245
1054	H	0.791181	0.602121	0.91237
1055	N	0.889765	0.695222	0.937255
1056	H	0.897647	0.689014	0.912383
1057	C	0.787959	0.717855	0.988436
1058	C	0.769242	0.716259	0.289801
1059	N	0.753408	0.726843	0.298523
1060	C	0.754195	0.739253	0.00412
1061	C	0.772294	0.741319	0.038037
1062	C	0.788965	0.730379	0.029477
1063	H	0.802288	0.731711	0.053279
1064	C	0.737331	0.750101	0.010792
1065	C	0.703567	0.758539	0.315876
1066	C	0.703783	0.772225	0.35503
1067	C	0.721494	0.774263	0.056097
1068	H	0.767255	0.707266	0.259659
1069	N	0.720043	0.748273	0.311733
1070	C	0.738432	0.763267	0.051388
1071	C	0.756402	0.765199	0.085268
1072	C	0.773216	0.754245	0.078656
1073	H	0.722365	0.784167	0.084814
1074	H	0.691302	0.756509	0.289786
1075	O	0.757375	0.776955	0.125135
1076	H	0.770979	0.795943	0.121878
1077	O	0.78977	0.755851	0.112364
1078	H	0.806563	0.772833	0.108083
1079	C	0.686204	0.784255	0.357523
1080	H	0.665417	0.768331	0.353351
1081	H	0.691413	0.797981	0.329273
1082	C	0.806323	0.707066	0.981364
1083	H	0.801835	0.692102	0.007377
1084	H	0.82683	0.723415	0.986473
1085	C	0.781913	0.570059	0.988456
1086	C	0.783507	0.552937	0.289818
1087	N	0.772926	0.526519	0.298541
1088	C	0.760521	0.514899	0.004141
1089	C	0.758454	0.530931	0.038059
1090	C	0.769394	0.558543	0.029498
1091	H	0.768059	0.570533	0.053297
1092	C	0.749669	0.987187	0.010813
1093	C	0.741233	0.944985	0.315897
1094	C	0.727542	0.931514	0.355044
1095	C	0.725509	0.947187	0.056119
1096	H	0.792499	0.559943	0.259674
1097	N	0.751499	0.971727	0.311753
1098	C	0.736506	0.975121	0.05141
1099	C	0.734574	0.991159	0.08529
1100	C	0.74553	0.518929	0.078678
1101	H	0.715601	0.938153	0.08483
1102	H	0.743255	0.934749	0.289799
1103	O	0.722816	0.980377	0.125155
1104	H	0.703829	0.974993	0.121894
1105	O	0.74392	0.533877	0.112382
1106	H	0.726937	0.533685	0.108096
1107	C	0.71551	0.901904	0.357537
1108	H	0.731431	0.897038	0.353357
1109	H	0.70178	0.89339	0.32929
1110	C	0.792701	0.599213	0.981377
1111	H	0.807665	0.60969	0.007392
1112	H	0.776351	0.603366	0.986486
1113	C	0.929709	0.711808	0.988466
1114	C	0.94683	0.730529	0.289834
1115	N	0.973246	0.746363	0.298557
1116	C	0.984867	0.745571	0.00415
1117	C	0.968837	0.727467	0.038063
1118	C	0.941226	0.710798	0.029502
1119	H	0.929236	0.697472	0.053301
1120	C	0.512581	0.762435	0.010823
1121	C	0.554782	0.796207	0.315912
1122	C	0.568253	0.795987	0.35506
1123	C	0.552581	0.778269	0.056125
1124	H	0.939821	0.732519	0.259695
1125	N	0.528039	0.779729	0.311769
1126	C	0.524646	0.761331	0.051416
1127	C	0.508611	0.743355	0.085291
1128	C	0.980841	0.726541	0.078677
1129	H	0.561613	0.777395	0.084838
1130	H	0.565015	0.808475	0.289825
1131	O	0.519394	0.742377	0.125153
1132	H	0.52478	0.728775	0.121887
1133	O	0.965893	0.709982	0.112381
1134	H	0.966084	0.69319	0.10809
1135	C	0.59786	0.813565	0.357557
1136	H	0.602724	0.834352	0.353387
1137	H	0.606379	0.808359	0.329301
1138	C	0.900553	0.693444	0.98139
1139	H	0.890077	0.697932	0.007403
1140	H	0.896397	0.672938	0.986499
1141	C	0.677152	0.815823	0.398096
1142	C	0.649205	0.805401	0.398212
1143	C	0.638483	0.822614	0.398122
1144	C	0.656007	0.850562	0.398222
1145	C	0.683943	0.861284	0.398112
1146	C	0.694366	0.843758	0.398196
1147	H	0.648334	0.86315	0.398749
1148	H	0.714628	0.851432	0.398722
1149	H	0.636615	0.785137	0.398732
1150	N	0.688653	0.799233	0.399232
1151	H	0.680831	0.786287	0.425711
1152	N	0.700535	0.889376	0.399249
1153	H	0.713483	0.894498	0.425724
1154	N	0.610391	0.811115	0.399262
1155	H	0.605269	0.818937	0.425741
1156	C	0.819262	0.680976	0.267703
1157	C	0.847521	0.694682	0.267399
1158	C	0.861526	0.680506	0.267727
1159	C	0.846972	0.652246	0.267428
1160	C	0.818791	0.63824	0.267717
1161	C	0.805086	0.652794	0.267414
1162	H	0.857002	0.641824	0.2684
1163	H	0.784635	0.642764	0.268378
1164	H	0.857944	0.715133	0.268389
1165	N	0.804546	0.694498	0.270565
1166	H	0.810751	0.708586	0.245689
1167	N	0.80527	0.610002	0.270579
1168	H	0.791181	0.602121	0.245704
1169	N	0.889765	0.695222	0.27059
1170	H	0.897647	0.689014	0.245716
1171	C	0.787959	0.717855	0.32177
1172	C	0.769242	0.716259	0.623134
1173	N	0.753408	0.726843	0.631856
1174	C	0.754195	0.739253	0.337454
1175	C	0.772294	0.741319	0.371371
1176	C	0.788965	0.730379	0.362809
1177	H	0.802288	0.731711	0.386611
1178	C	0.737331	0.750101	0.344126
1179	C	0.703567	0.758539	0.649209
1180	C	0.703783	0.772225	0.688362
1181	C	0.721494	0.774263	0.389431
1182	H	0.767255	0.707266	0.592993
1183	N	0.720043	0.748273	0.645066
1184	C	0.738432	0.763267	0.384722
1185	C	0.756402	0.765199	0.418602
1186	C	0.773216	0.754245	0.41199
1187	H	0.722365	0.784167	0.418145
1188	H	0.691302	0.756509	0.623117
1189	O	0.757375	0.776955	0.458468
1190	H	0.770979	0.795943	0.455212
1191	O	0.78977	0.755851	0.445697
1192	H	0.806563	0.772833	0.441418
1193	C	0.686204	0.784255	0.690858
1194	H	0.665417	0.768331	0.686682
1195	H	0.691413	0.797981	0.662606
1196	C	0.806323	0.707066	0.314697
1197	H	0.801835	0.692102	0.34071
1198	H	0.82683	0.723415	0.319807
1199	C	0.781913	0.570059	0.321788
1200	C	0.783507	0.552937	0.62315
1201	N	0.772926	0.526519	0.631876
1202	C	0.760521	0.514899	0.337474
1203	C	0.758454	0.530931	0.371391
1204	C	0.769394	0.558543	0.362832
1205	H	0.768059	0.570533	0.386631
1206	C	0.749669	0.987187	0.344146
1207	C	0.741233	0.944985	0.649229
1208	C	0.727542	0.931514	0.688378
1209	C	0.725509	0.947187	0.389451
1210	H	0.792499	0.559943	0.593006
1211	N	0.751499	0.971727	0.645086
1212	C	0.736506	0.975121	0.384742
1213	C	0.734574	0.991159	0.418622
1214	C	0.74553	0.518929	0.41201
1215	H	0.715601	0.938153	0.418162
1216	H	0.743255	0.934749	0.62313
1217	O	0.722816	0.980377	0.458488
1218	H	0.703829	0.974993	0.455228
1219	O	0.74392	0.533877	0.445717
1220	H	0.726937	0.533685	0.441431
1221	C	0.71551	0.901904	0.690871
1222	H	0.731431	0.897038	0.686692
1223	H	0.70178	0.89339	0.662623
1224	C	0.792701	0.599213	0.314712
1225	H	0.807665	0.60969	0.340723
1226	H	0.776351	0.603366	0.319819
1227	C	0.929709	0.711808	0.321798
1228	C	0.94683	0.730529	0.623167
1229	N	0.973246	0.746363	0.631889
1230	C	0.984867	0.745571	0.337484
1231	C	0.968837	0.727467	0.371397
1232	C	0.941226	0.710798	0.362836
1233	H	0.929236	0.697472	0.386635
1234	C	0.512581	0.762435	0.344156
1235	C	0.554782	0.796207	0.649246
1236	C	0.568253	0.795987	0.688395
1237	C	0.552581	0.778269	0.389457
1238	H	0.939821	0.732519	0.593029
1239	N	0.528039	0.779729	0.645103
1240	C	0.524646	0.761331	0.384748
1241	C	0.508611	0.743355	0.418625
1242	C	0.980841	0.726541	0.41201
1243	H	0.561613	0.777395	0.418172
1244	H	0.565015	0.808475	0.623157
1245	O	0.519394	0.742377	0.458488
1246	H	0.52478	0.728775	0.455222
1247	O	0.965893	0.709982	0.445714
1248	H	0.966084	0.69319	0.441424
1249	C	0.59786	0.813565	0.690888
1250	H	0.602724	0.834352	0.686722
1251	H	0.606379	0.808359	0.662633
1252	C	0.900553	0.693444	0.314724
1253	H	0.890077	0.697932	0.340736
1254	H	0.896397	0.672938	0.319833
1255	C	0.677152	0.815823	0.73143
1256	C	0.649205	0.805401	0.731544
1257	C	0.638483	0.822614	0.731457
1258	C	0.656007	0.850562	0.731557
1259	C	0.683943	0.861284	0.731447
1260	C	0.694366	0.843758	0.731527
1261	H	0.648334	0.86315	0.732083
1262	H	0.714628	0.851432	0.732057
1263	H	0.636615	0.785137	0.732067
1264	N	0.688653	0.799233	0.732567
1265	H	0.680831	0.786287	0.759042
1266	N	0.700535	0.889376	0.732583
1267	H	0.713483	0.894498	0.759055
1268	N	0.610391	0.811115	0.732593
1269	H	0.605269	0.818937	0.759075
1270	C	0.819262	0.680976	0.601035
1271	C	0.847521	0.694682	0.600731
1272	C	0.861526	0.680506	0.601061
1273	C	0.846972	0.652246	0.600761
1274	C	0.818791	0.63824	0.601051
1275	C	0.805086	0.652794	0.600748
1276	H	0.857002	0.641824	0.601734
1277	H	0.784635	0.642764	0.601711
1278	H	0.857944	0.715133	0.601721
1279	N	0.804546	0.694498	0.603897
1280	H	0.810751	0.708586	0.579022
1281	N	0.80527	0.610002	0.603911
1282	H	0.791181	0.602121	0.579035
1283	N	0.889765	0.695222	0.603924
1284	H	0.897647	0.689014	0.579049
1285	C	0.787959	0.717855	0.655105
1286	C	0.769242	0.716259	0.956468
1287	N	0.753408	0.726843	0.96519
1288	C	0.754195	0.739253	0.670785
1289	C	0.772294	0.741319	0.704702
1290	C	0.788965	0.730379	0.696144
1291	H	0.802288	0.731711	0.719946
1292	C	0.737331	0.750101	0.677457
1293	C	0.703567	0.758539	0.982543
1294	C	0.703783	0.772225	0.021696
1295	C	0.721494	0.774263	0.722765
1296	H	0.767255	0.707266	0.926324
1297	N	0.720043	0.748273	0.978401
1298	C	0.738432	0.763267	0.718056
1299	C	0.756402	0.765199	0.751936
1300	C	0.773216	0.754245	0.745321
1301	H	0.722365	0.784167	0.75148
1302	H	0.691302	0.756509	0.956452
1303	O	0.757375	0.776955	0.791802
1304	H	0.770979	0.795943	0.788546
1305	O	0.78977	0.755851	0.779031
1306	H	0.806563	0.772833	0.774749
1307	C	0.686204	0.784255	0.024191
1308	H	0.665417	0.768331	0.020017
1309	H	0.691413	0.797981	0.995938
1310	C	0.806323	0.707066	0.648029
1311	H	0.801835	0.692102	0.674044
1312	H	0.82683	0.723415	0.653142
1313	C	0.781913	0.570059	0.655121
1314	C	0.783507	0.552937	0.956485
1315	N	0.772926	0.526519	0.965207
1316	C	0.760521	0.514899	0.670808
1317	C	0.758454	0.530931	0.704725
1318	C	0.769394	0.558543	0.696164
1319	H	0.768059	0.570533	0.719962
1320	C	0.749669	0.987187	0.67748
1321	C	0.741233	0.944985	0.982563
1322	C	0.727542	0.931514	0.021712
1323	C	0.725509	0.947187	0.722785
1324	H	0.792499	0.559943	0.926341
1325	N	0.751499	0.971727	0.978418
1326	C	0.736506	0.975121	0.718076
1327	C	0.734574	0.991159	0.751956
1328	C	0.74553	0.518929	0.745344
1329	H	0.715601	0.938153	0.751497
1330	H	0.743255	0.934749	0.956465
1331	O	0.722816	0.980377	0.791822
1332	H	0.703829	0.974993	0.78856
1333	O	0.74392	0.533877	0.779048
1334	H	0.726937	0.533685	0.774762
1335	C	0.71551	0.901904	0.024205
1336	H	0.731431	0.897038	0.020024
1337	H	0.70178	0.89339	0.995958
1338	C	0.792701	0.599213	0.648046
1339	H	0.807665	0.60969	0.674058
1340	H	0.776351	0.603366	0.653152
1341	C	0.929709	0.711808	0.655131
1342	C	0.94683	0.730529	0.956502
1343	N	0.973246	0.746363	0.965223
1344	C	0.984867	0.745571	0.670818
1345	C	0.968837	0.727467	0.704729
1346	C	0.941226	0.710798	0.69617
1347	H	0.929236	0.697472	0.719969
1348	C	0.512581	0.762435	0.67749
1349	C	0.554782	0.796207	0.98258
1350	C	0.568253	0.795987	0.021729
1351	C	0.552581	0.778269	0.722792
1352	H	0.939821	0.732519	0.926361
1353	N	0.528039	0.779729	0.978434
1354	C	0.524646	0.761331	0.718083
1355	C	0.508611	0.743355	0.751956
1356	C	0.980841	0.726541	0.745344
1357	H	0.561613	0.777395	0.751503
1358	H	0.565015	0.808475	0.956492
1359	O	0.519394	0.742377	0.791819
1360	H	0.52478	0.728775	0.788553
1361	O	0.965893	0.709982	0.779048
1362	H	0.966084	0.69319	0.774756
1363	C	0.59786	0.813565	0.024223
1364	H	0.602724	0.834352	0.020054
1365	H	0.606379	0.808359	0.995968
1366	C	0.900553	0.693444	0.648056
1367	H	0.890077	0.697932	0.674071
1368	H	0.896397	0.672938	0.653168
