data_C576H384N48_2018-02-15_10:35:59
#******************************************
#
# CIF file created by Zeo++
# Zeo++ is an open source package to
# analyze microporous materials
#
#*******************************************

_cell_length_a		43.2823   
_cell_length_b		25.1524   
_cell_length_c		28.9948   
_cell_angle_alpha		92.216   
_cell_angle_beta		88.7124   
_cell_angle_gamma		90.0497   

_symmetry_space_group_name_H-M		'P1'
_symmetry_Int_Tables_number		1
_symmetry_cell_setting		Triclinic

loop_
_symmetry_equiv_pos_as_xyz
'+x,+y,+z'

loop_
_atom_site_label
_atom_site_type_symbol
_atom_site_fract_x
_atom_site_fract_y
_atom_site_fract_z
1	C	0.43916	0.020904	0.03238
2	C	0.453652	0.068525	0.016389
3	N	0.414601	0.023738	0.063008
4	C	0.103092	0.017012	0.032292
5	C	0.088422	0.067207	0.026374
6	C	0.055814	0.066064	0.021497
7	N	0.126656	0.016904	0.063064
8	H	0.13328	0.049552	0.07899
9	H	0.40997	0.057268	0.079398
10	C	0.93916	0.020904	0.03238
11	C	0.953651	0.068525	0.016389
12	N	0.9146	0.023738	0.063008
13	C	0.603091	0.017012	0.032292
14	C	0.588421	0.067207	0.026374
15	C	0.555815	0.066064	0.021497
16	N	0.626656	0.016904	0.063064
17	H	0.63328	0.049552	0.07899
18	H	0.909969	0.057268	0.079398
19	C	0.486763	0.470884	0.021466
20	C	0.45401	0.470192	0.026369
21	C	0.089079	0.467953	0.016385
22	H	0.130888	0.484873	0.079428
23	H	0.407465	0.492569	0.078957
24	C	0.139463	0.217216	0.020267
25	C	0.154478	0.364896	0.014466
26	C	0.105428	0.116357	0.026808
27	C	0.093487	0.165094	0.045699
28	C	0.11062	0.212864	0.04445
29	C	0.236765	0.254095	0.052484
30	C	0.204076	0.252958	0.052694
31	H	0.101471	0.245314	0.062081
32	H	0.072802	0.165829	0.063455
33	H	0.2475	0.244371	0.082059
34	H	0.192411	0.243831	0.082432
35	H	0.177762	0.367005	0.019272
36	C	0.403164	0.319635	0.020271
37	C	0.388325	0.171437	0.014452
38	C	0.43699	0.421084	0.026824
39	C	0.448358	0.374041	0.045738
40	C	0.431265	0.326156	0.044489
41	C	0.304895	0.285646	0.052481
42	C	0.337578	0.286807	0.05269
43	H	0.439879	0.295284	0.062135
44	H	0.468506	0.374898	0.063504
45	H	0.293269	0.298017	0.082052
46	H	0.348348	0.298585	0.082429
47	H	0.364895	0.169756	0.019235
48	C	0.48676	0.97088	0.021466
49	C	0.45401	0.970192	0.026369
50	C	0.439161	0.520904	0.03238
51	C	0.453652	0.568524	0.016389
52	N	0.414601	0.523736	0.063008
53	C	0.089079	0.967949	0.016385
54	C	0.103092	0.517012	0.032292
55	C	0.088422	0.567209	0.026374
56	C	0.055814	0.566065	0.021497
57	N	0.126656	0.516904	0.063064
58	H	0.130888	0.984873	0.079427
59	H	0.13328	0.549551	0.07899
60	H	0.40997	0.557266	0.079398
61	H	0.407465	0.992565	0.078957
62	C	0.139463	0.717217	0.020267
63	C	0.154478	0.864895	0.014466
64	C	0.105427	0.616357	0.026808
65	C	0.093488	0.665094	0.045699
66	C	0.11062	0.712863	0.04445
67	C	0.236766	0.754096	0.052484
68	C	0.204076	0.752956	0.052694
69	H	0.101471	0.745315	0.062081
70	H	0.072802	0.66583	0.063455
71	H	0.2475	0.744369	0.082059
72	H	0.192411	0.743833	0.082432
73	H	0.177762	0.867003	0.019272
74	C	0.403164	0.819632	0.020271
75	C	0.388325	0.671438	0.014452
76	C	0.43699	0.921084	0.026824
77	C	0.448358	0.874038	0.045738
78	C	0.431265	0.826154	0.044489
79	C	0.304893	0.785647	0.052481
80	C	0.337578	0.786806	0.05269
81	H	0.439879	0.795285	0.062135
82	H	0.468506	0.874897	0.063504
83	H	0.293269	0.798017	0.082052
84	H	0.348349	0.798587	0.082429
85	H	0.364895	0.669756	0.019235
86	C	0.986762	0.470884	0.021466
87	C	0.954009	0.470192	0.026369
88	C	0.589079	0.467953	0.016385
89	H	0.630887	0.484873	0.079428
90	H	0.907464	0.492569	0.078957
91	C	0.639461	0.217216	0.020267
92	C	0.654478	0.364896	0.014466
93	C	0.605427	0.116357	0.026808
94	C	0.593486	0.165094	0.045699
95	C	0.610619	0.212864	0.04445
96	C	0.736765	0.254095	0.052484
97	C	0.704075	0.252958	0.052694
98	H	0.60147	0.245314	0.062081
99	H	0.572802	0.165829	0.063455
100	H	0.747499	0.244371	0.082059
101	H	0.692411	0.243831	0.082432
102	H	0.677761	0.367005	0.019272
103	C	0.903163	0.319635	0.020271
104	C	0.888324	0.171437	0.014452
105	C	0.936989	0.421084	0.026824
106	C	0.948357	0.374041	0.045738
107	C	0.931264	0.326156	0.044489
108	C	0.804894	0.285646	0.052481
109	C	0.837577	0.286807	0.05269
110	H	0.939878	0.295284	0.062135
111	H	0.968505	0.374898	0.063504
112	H	0.79327	0.298017	0.082052
113	H	0.848348	0.298585	0.082429
114	H	0.864896	0.169756	0.019235
115	C	0.986762	0.97088	0.021466
116	C	0.954009	0.970192	0.026369
117	C	0.93916	0.520904	0.03238
118	C	0.953651	0.568524	0.016389
119	N	0.9146	0.523736	0.063008
120	C	0.58908	0.967949	0.016385
121	C	0.603091	0.517012	0.032292
122	C	0.588421	0.567209	0.026374
123	C	0.555813	0.566065	0.021497
124	N	0.626656	0.516904	0.063064
125	H	0.630887	0.984873	0.079427
126	H	0.633278	0.549551	0.07899
127	H	0.909969	0.557266	0.079398
128	H	0.907464	0.992565	0.078957
129	C	0.639461	0.717217	0.020267
130	C	0.654478	0.864895	0.014466
131	C	0.605428	0.616357	0.026808
132	C	0.593486	0.665094	0.045699
133	C	0.610619	0.712863	0.04445
134	C	0.736765	0.754096	0.052484
135	C	0.704076	0.752956	0.052694
136	H	0.601471	0.745315	0.062081
137	H	0.572802	0.66583	0.063455
138	H	0.747499	0.744369	0.082059
139	H	0.692411	0.743833	0.082432
140	H	0.677762	0.867003	0.019272
141	C	0.903164	0.819632	0.020271
142	C	0.888324	0.671438	0.014452
143	C	0.936989	0.921084	0.026824
144	C	0.948358	0.874038	0.045738
145	C	0.931264	0.826154	0.044489
146	C	0.804894	0.785647	0.052481
147	C	0.837577	0.786806	0.05269
148	H	0.939878	0.795285	0.062135
149	H	0.968505	0.874897	0.063504
150	H	0.793268	0.798017	0.082052
151	H	0.848348	0.798587	0.082429
152	H	0.864894	0.669756	0.019235
153	C	0.486223	0.063915	0.007389
154	C	0.038475	0.018564	0.013844
155	H	0.044515	0.101564	0.355744
156	H	0.497754	0.095595	0.995112
157	H	0.145532	0.085665	0.991532
158	H	0.390874	0.089006	0.012436
159	C	0.439161	0.020904	0.365714
160	C	0.453653	0.068525	0.349723
161	C	0.486224	0.063915	0.340723
162	N	0.414601	0.023738	0.39634
163	C	0.038475	0.018564	0.347179
164	C	0.103092	0.017013	0.365624
165	C	0.088422	0.067207	0.359707
166	C	0.055814	0.066064	0.354829
167	N	0.126656	0.016901	0.396399
168	H	0.044515	0.101564	0.689079
169	H	0.13328	0.049552	0.412324
170	H	0.409968	0.057268	0.412732
171	H	0.497756	0.095595	0.328445
172	H	0.145532	0.085665	0.324866
173	H	0.390873	0.089006	0.34577
174	C	0.439159	0.020904	0.699045
175	C	0.453654	0.068525	0.683054
176	C	0.486225	0.063915	0.674057
177	N	0.414599	0.023738	0.729675
178	C	0.038475	0.018564	0.680513
179	C	0.103092	0.017014	0.698959
180	C	0.088422	0.067207	0.693042
181	C	0.055814	0.066064	0.688164
182	N	0.126656	0.016902	0.72973
183	H	0.044515	0.101564	0.022411
184	H	0.13328	0.049552	0.745656
185	H	0.409968	0.057268	0.746063
186	H	0.497754	0.095595	0.661777
187	H	0.145532	0.085664	0.658197
188	H	0.390873	0.089006	0.679105
189	C	0.986225	0.063915	0.007389
190	C	0.538476	0.018564	0.013844
191	H	0.544515	0.101564	0.355744
192	H	0.997753	0.095595	0.995112
193	H	0.645531	0.085665	0.991532
194	H	0.890873	0.089006	0.012436
195	C	0.93916	0.020904	0.365714
196	C	0.953652	0.068525	0.349723
197	C	0.986224	0.063915	0.340723
198	N	0.9146	0.023738	0.39634
199	C	0.538475	0.018564	0.347179
200	C	0.603091	0.017013	0.365624
201	C	0.588421	0.067207	0.359707
202	C	0.555813	0.066064	0.354829
203	N	0.626657	0.016901	0.396399
204	H	0.544515	0.101564	0.689079
205	H	0.633279	0.049552	0.412324
206	H	0.909969	0.057268	0.412732
207	H	0.997755	0.095595	0.328445
208	H	0.645532	0.085665	0.324866
209	H	0.890872	0.089006	0.34577
210	C	0.93916	0.020904	0.699045
211	C	0.953653	0.068525	0.683054
212	C	0.986224	0.063915	0.674057
213	N	0.914599	0.023738	0.729675
214	C	0.538475	0.018564	0.680513
215	C	0.603092	0.017014	0.698959
216	C	0.588422	0.067207	0.693042
217	C	0.555814	0.066064	0.688164
218	N	0.626655	0.016902	0.72973
219	H	0.544514	0.101564	0.022411
220	H	0.633279	0.049552	0.745656
221	H	0.909967	0.057268	0.746063
222	H	0.997753	0.095595	0.661777
223	H	0.645533	0.085664	0.658197
224	H	0.890872	0.089006	0.679105
225	C	0.504337	0.0177	0.013848
226	H	0.498029	0.435458	0.355723
227	C	0.056779	0.471766	0.007385
228	H	0.045614	0.438986	0.995136
229	N	0.15468	0.265686	0.014183
230	C	0.187229	0.264886	0.013095
231	C	0.139439	0.314583	0.01073
232	C	0.107635	0.319001	5.6e-05
233	C	0.091303	0.367642	0.002317
234	C	0.105713	0.417805	0.01129
235	C	0.138549	0.413824	0.012595
236	C	0.151903	0.167605	0.003432
237	C	0.135658	0.119038	0.006853
238	C	0.204759	0.277389	0.973141
239	C	0.237455	0.278595	0.973051
240	C	0.254598	0.267213	0.012747
241	H	0.172586	0.166581	0.985677
242	H	0.09533	0.286013	0.990255
243	H	0.068137	0.364494	0.997594
244	H	0.19358	0.286593	0.943782
245	H	0.248681	0.289475	0.943482
246	H	0.151982	0.447153	0.012495
247	N	0.388132	0.270619	0.014193
248	C	0.355615	0.271324	0.013099
249	C	0.403481	0.221418	0.010744
250	C	0.435613	0.216045	0.000111
251	C	0.45187	0.167599	0.002369
252	C	0.437181	0.118228	0.01129
253	C	0.404307	0.122339	0.012574
254	C	0.391233	0.367738	0.003415
255	C	0.40736	0.416625	0.006871
256	C	0.339287	0.255236	0.973152
257	C	0.306593	0.254041	0.973055
258	C	0.288257	0.268973	0.012747
259	H	0.397972	0.448589	0.991453
260	H	0.371104	0.367146	0.985611
261	H	0.44822	0.248163	0.990344
262	H	0.47518	0.170327	0.997687
263	H	0.351349	0.243431	0.943789
264	H	0.296256	0.240521	0.943489
265	C	0.504336	0.017698	0.347182
266	C	0.486761	0.470881	0.354798
267	C	0.45401	0.470193	0.359704
268	H	0.49803	0.435459	0.689054
269	C	0.056779	0.471768	0.340719
270	C	0.089079	0.467951	0.34972
271	H	0.130888	0.484873	0.412759
272	H	0.407463	0.492565	0.41229
273	H	0.045614	0.438987	0.328469
274	N	0.15468	0.265686	0.347517
275	C	0.139463	0.217216	0.3536
276	C	0.187229	0.264886	0.346429
277	C	0.139439	0.314583	0.344063
278	C	0.107635	0.319001	0.333391
279	C	0.091303	0.367642	0.335651
280	C	0.105713	0.417804	0.344625
281	C	0.138549	0.413823	0.345929
282	C	0.154478	0.364896	0.3478
283	C	0.151903	0.167605	0.336764
284	C	0.135658	0.119038	0.340186
285	C	0.105427	0.116357	0.360142
286	C	0.093487	0.165094	0.379033
287	C	0.11062	0.212864	0.377784
288	C	0.204759	0.277389	0.306475
289	C	0.237457	0.278595	0.306384
290	C	0.254597	0.267213	0.346081
291	C	0.236766	0.254095	0.385817
292	C	0.204076	0.252958	0.386028
293	H	0.172586	0.166581	0.31901
294	H	0.101471	0.245314	0.395415
295	H	0.072802	0.165829	0.396789
296	H	0.09533	0.286013	0.323589
297	H	0.068137	0.364494	0.330927
298	H	0.19358	0.286593	0.277116
299	H	0.248683	0.289475	0.276816
300	H	0.247501	0.24437	0.415394
301	H	0.192411	0.243831	0.415766
302	H	0.177762	0.367005	0.352606
303	H	0.151982	0.447151	0.345829
304	N	0.388133	0.27062	0.347527
305	C	0.403165	0.319635	0.353603
306	C	0.355617	0.271325	0.346433
307	C	0.40348	0.221418	0.344077
308	C	0.435612	0.216045	0.333445
309	C	0.451869	0.167599	0.335703
310	C	0.437182	0.118228	0.344624
311	C	0.404306	0.122339	0.345908
312	C	0.388326	0.171437	0.347786
313	C	0.391232	0.367738	0.336748
314	C	0.407359	0.416625	0.340202
315	C	0.43699	0.421084	0.360156
316	C	0.448359	0.37404	0.379071
317	C	0.431265	0.326156	0.377822
318	C	0.339286	0.255236	0.306486
319	C	0.306592	0.254041	0.306388
320	C	0.288256	0.268974	0.346081
321	C	0.304893	0.285646	0.385814
322	C	0.337578	0.286807	0.386024
323	H	0.397971	0.448587	0.324787
324	H	0.371104	0.367146	0.318945
325	H	0.439877	0.295284	0.395467
326	H	0.468504	0.374898	0.396837
327	H	0.448221	0.248163	0.323676
328	H	0.475182	0.170327	0.331022
329	H	0.351348	0.243431	0.277123
330	H	0.296255	0.240522	0.276821
331	H	0.293269	0.298017	0.415387
332	H	0.348347	0.298585	0.415763
333	H	0.364895	0.169756	0.352568
334	C	0.504336	0.017699	0.680513
335	C	0.486761	0.470882	0.688133
336	C	0.454008	0.470194	0.693035
337	H	0.498029	0.435461	0.022388
338	C	0.056779	0.471769	0.67405
339	C	0.089079	0.467952	0.683051
340	H	0.130888	0.48487	0.746094
341	H	0.407463	0.492566	0.745625
342	H	0.045614	0.438988	0.661802
343	N	0.15468	0.265686	0.680848
344	C	0.139463	0.217216	0.686931
345	C	0.187229	0.264887	0.679764
346	C	0.139439	0.314583	0.677396
347	C	0.107635	0.319001	0.666725
348	C	0.091303	0.367642	0.668982
349	C	0.105713	0.417805	0.677958
350	C	0.138549	0.413823	0.67926
351	C	0.154478	0.364896	0.681131
352	C	0.151903	0.167605	0.670097
353	C	0.135658	0.119037	0.673519
354	C	0.105428	0.116357	0.693473
355	C	0.093487	0.165094	0.712365
356	C	0.11062	0.212864	0.711118
357	C	0.204759	0.277389	0.63981
358	C	0.237457	0.278595	0.639717
359	C	0.254598	0.267213	0.679412
360	C	0.236766	0.254095	0.719152
361	C	0.204076	0.252958	0.719359
362	H	0.172586	0.166581	0.652342
363	H	0.101471	0.245314	0.728746
364	H	0.072802	0.165828	0.73012
365	H	0.09533	0.286013	0.656923
366	H	0.068137	0.364495	0.66426
367	H	0.19358	0.286593	0.610448
368	H	0.248683	0.289475	0.610151
369	H	0.247501	0.24437	0.748725
370	H	0.192411	0.243831	0.749098
371	H	0.177762	0.367005	0.685937
372	H	0.151982	0.447152	0.67916
373	N	0.388133	0.270619	0.680858
374	C	0.403165	0.319635	0.686938
375	C	0.355617	0.271325	0.679768
376	C	0.403481	0.221417	0.67741
377	C	0.435612	0.216046	0.66678
378	C	0.45187	0.167599	0.669038
379	C	0.43718	0.118228	0.677958
380	C	0.404307	0.122339	0.679239
381	C	0.388327	0.171437	0.681117
382	C	0.391233	0.367738	0.67008
383	C	0.40736	0.416625	0.673536
384	C	0.436991	0.421083	0.693491
385	C	0.448357	0.37404	0.712406
386	C	0.431266	0.326156	0.711156
387	C	0.339287	0.255236	0.63982
388	C	0.306593	0.254041	0.63972
389	C	0.288257	0.268974	0.679412
390	C	0.304893	0.285646	0.719148
391	C	0.337576	0.286807	0.719356
392	H	0.397971	0.448588	0.658121
393	H	0.371104	0.367146	0.652276
394	H	0.439878	0.295284	0.728801
395	H	0.468505	0.374898	0.730172
396	H	0.448222	0.248163	0.65701
397	H	0.47518	0.170327	0.664356
398	H	0.351349	0.243431	0.610455
399	H	0.296255	0.240521	0.610154
400	H	0.29327	0.298017	0.748718
401	H	0.348347	0.298585	0.749094
402	H	0.364896	0.169756	0.685902
403	C	0.504337	0.5177	0.013848
404	C	0.486223	0.563917	0.007389
405	H	0.498029	0.935458	0.355723
406	C	0.038475	0.518562	0.013844
407	C	0.056779	0.971766	0.007385
408	H	0.044515	0.601563	0.355744
409	H	0.497754	0.595593	0.995112
410	H	0.045614	0.938985	0.995136
411	N	0.15468	0.765687	0.014183
412	C	0.187229	0.764887	0.013095
413	C	0.139439	0.814582	0.01073
414	C	0.107635	0.819001	5.6e-05
415	C	0.091303	0.867642	0.002317
416	C	0.105713	0.917806	0.01129
417	C	0.138549	0.913825	0.012595
418	C	0.151903	0.667603	0.003432
419	C	0.135658	0.619037	0.006853
420	C	0.204759	0.777388	0.973141
421	C	0.237455	0.778593	0.973051
422	C	0.254598	0.767213	0.012747
423	H	0.145532	0.585665	0.991532
424	H	0.172586	0.666582	0.985677
425	H	0.09533	0.786011	0.990255
426	H	0.068137	0.864493	0.997594
427	H	0.19358	0.786592	0.943782
428	H	0.248682	0.789473	0.943482
429	H	0.151982	0.947153	0.012495
430	N	0.388132	0.770618	0.014193
431	C	0.355616	0.771324	0.013099
432	C	0.403482	0.721419	0.010744
433	C	0.435613	0.716043	0.000111
434	C	0.451871	0.6676	0.002369
435	C	0.437181	0.618228	0.01129
436	C	0.404307	0.622337	0.012574
437	C	0.391233	0.867738	0.003415
438	C	0.40736	0.916623	0.006871
439	C	0.339287	0.755236	0.973152
440	C	0.306594	0.754039	0.973055
441	C	0.288257	0.768975	0.012747
442	H	0.397972	0.948589	0.991453
443	H	0.371105	0.867144	0.985611
444	H	0.44822	0.748161	0.990344
445	H	0.475181	0.670325	0.997687
446	H	0.351349	0.743432	0.943789
447	H	0.296256	0.74052	0.943489
448	H	0.390874	0.589006	0.012436
449	C	0.504336	0.517698	0.347182
450	C	0.486761	0.970881	0.354798
451	C	0.454011	0.970193	0.359704
452	C	0.439161	0.520905	0.365714
453	C	0.453653	0.568526	0.349723
454	C	0.486225	0.563915	0.340723
455	H	0.49803	0.935459	0.689054
456	N	0.414599	0.523737	0.39634
457	C	0.038475	0.518565	0.347179
458	C	0.056779	0.971768	0.340719
459	C	0.089079	0.967951	0.34972
460	C	0.103092	0.517013	0.365624
461	C	0.088422	0.567206	0.359707
462	C	0.055814	0.566062	0.354829
463	N	0.126656	0.516905	0.396399
464	H	0.044515	0.601564	0.689079
465	H	0.130888	0.984874	0.412759
466	H	0.13328	0.549552	0.412324
467	H	0.409968	0.557267	0.412732
468	H	0.407463	0.992566	0.41229
469	H	0.497753	0.595595	0.328445
470	H	0.045614	0.938987	0.328469
471	N	0.15468	0.765685	0.347517
472	C	0.139463	0.717217	0.3536
473	C	0.187229	0.764885	0.346429
474	C	0.139439	0.81458	0.344063
475	C	0.107635	0.818999	0.333391
476	C	0.091303	0.86764	0.335651
477	C	0.105713	0.917804	0.344625
478	C	0.138549	0.913823	0.345929
479	C	0.154478	0.864897	0.3478
480	C	0.151903	0.667605	0.336764
481	C	0.135658	0.619039	0.340186
482	C	0.105427	0.616357	0.360142
483	C	0.093488	0.665095	0.379033
484	C	0.11062	0.712864	0.377784
485	C	0.204759	0.777386	0.306475
486	C	0.237457	0.778595	0.306384
487	C	0.254597	0.767212	0.346081
488	C	0.236766	0.754093	0.385817
489	C	0.204076	0.752957	0.386028
490	H	0.145532	0.585663	0.324866
491	H	0.172586	0.66658	0.31901
492	H	0.101471	0.745312	0.395415
493	H	0.072802	0.665827	0.396789
494	H	0.09533	0.786013	0.323589
495	H	0.068137	0.864495	0.330927
496	H	0.19358	0.786594	0.277116
497	H	0.248683	0.789475	0.276816
498	H	0.247501	0.74437	0.415394
499	H	0.192411	0.74383	0.415766
500	H	0.177762	0.867004	0.352606
501	H	0.151982	0.947152	0.345829
502	N	0.388133	0.77062	0.347527
503	C	0.403165	0.819633	0.353603
504	C	0.355617	0.771322	0.346433
505	C	0.403481	0.721417	0.344077
506	C	0.435612	0.716045	0.333445
507	C	0.45187	0.667598	0.335703
508	C	0.437183	0.618227	0.344624
509	C	0.404307	0.622339	0.345908
510	C	0.388326	0.671436	0.347786
511	C	0.391232	0.867737	0.336748
512	C	0.407359	0.916625	0.340202
513	C	0.43699	0.921085	0.360156
514	C	0.448359	0.874039	0.379071
515	C	0.431266	0.826155	0.377822
516	C	0.339286	0.755234	0.306486
517	C	0.306593	0.754041	0.306388
518	C	0.288256	0.768973	0.346081
519	C	0.304893	0.785644	0.385814
520	C	0.337576	0.786807	0.386024
521	H	0.397971	0.948588	0.324787
522	H	0.371104	0.867146	0.318945
523	H	0.439877	0.795282	0.395467
524	H	0.468504	0.874898	0.396837
525	H	0.448221	0.748164	0.323676
526	H	0.475182	0.670327	0.331022
527	H	0.351349	0.74343	0.277123
528	H	0.296255	0.740522	0.276822
529	H	0.293269	0.798018	0.415387
530	H	0.348347	0.798584	0.415763
531	H	0.364895	0.669756	0.352568
532	H	0.390873	0.589004	0.34577
533	C	0.504336	0.517699	0.680513
534	C	0.486761	0.970882	0.688133
535	C	0.454009	0.97019	0.693035
536	C	0.439159	0.520902	0.699045
537	C	0.453651	0.568523	0.683054
538	C	0.486225	0.563916	0.674057
539	H	0.498029	0.935461	0.022388
540	N	0.4146	0.523738	0.729675
541	C	0.038475	0.518566	0.680513
542	C	0.056779	0.971765	0.67405
543	C	0.089079	0.967952	0.683051
544	C	0.103092	0.517014	0.698959
545	C	0.088422	0.567207	0.693042
546	C	0.055815	0.566063	0.688164
547	N	0.126656	0.516902	0.72973
548	H	0.044515	0.601566	0.022411
549	H	0.130888	0.984871	0.746094
550	H	0.13328	0.549552	0.745656
551	H	0.409969	0.557268	0.746063
552	H	0.407464	0.992567	0.745625
553	H	0.497754	0.595596	0.661777
554	H	0.045614	0.938984	0.661802
555	N	0.15468	0.765686	0.680848
556	C	0.139463	0.717214	0.686935
557	C	0.187228	0.764886	0.679764
558	C	0.139439	0.814581	0.677396
559	C	0.107635	0.819	0.666725
560	C	0.091303	0.867641	0.668982
561	C	0.105713	0.917805	0.677958
562	C	0.138549	0.913824	0.67926
563	C	0.154478	0.864894	0.681131
564	C	0.151903	0.667606	0.670097
565	C	0.135658	0.619036	0.673519
566	C	0.105428	0.616358	0.693473
567	C	0.093488	0.665092	0.712365
568	C	0.11062	0.712865	0.711118
569	C	0.204759	0.777387	0.63981
570	C	0.237455	0.778596	0.639717
571	C	0.254598	0.767212	0.679412
572	C	0.236767	0.754094	0.719152
573	C	0.204076	0.752958	0.719359
574	H	0.145532	0.585664	0.658201
575	H	0.172586	0.666581	0.652342
576	H	0.101471	0.745313	0.728746
577	H	0.072802	0.665827	0.73012
578	H	0.09533	0.786014	0.656923
579	H	0.068137	0.864492	0.66426
580	H	0.19358	0.786591	0.610448
581	H	0.248684	0.789476	0.610147
582	H	0.247501	0.744371	0.748725
583	H	0.192411	0.743831	0.749098
584	H	0.177762	0.867005	0.685937
585	H	0.151982	0.947152	0.67916
586	N	0.388134	0.770621	0.680858
587	C	0.403165	0.819634	0.686938
588	C	0.355617	0.771323	0.679768
589	C	0.403481	0.721418	0.67741
590	C	0.435612	0.716046	0.66678
591	C	0.45187	0.667599	0.669038
592	C	0.437181	0.618228	0.677958
593	C	0.404307	0.62234	0.679239
594	C	0.388325	0.671437	0.681117
595	C	0.391233	0.867737	0.67008
596	C	0.40736	0.916622	0.673536
597	C	0.436989	0.921082	0.693491
598	C	0.448357	0.87404	0.712406
599	C	0.431264	0.826156	0.711156
600	C	0.339287	0.755235	0.63982
601	C	0.306593	0.754042	0.63972
602	C	0.288257	0.768974	0.679412
603	C	0.304894	0.785645	0.719148
604	C	0.337576	0.786807	0.719356
605	H	0.397971	0.948589	0.658121
606	H	0.371104	0.867147	0.652276
607	H	0.439878	0.795283	0.728801
608	H	0.468505	0.874899	0.730172
609	H	0.448219	0.748164	0.65701
610	H	0.47518	0.670328	0.664356
611	H	0.351349	0.743431	0.610455
612	H	0.296256	0.740523	0.610154
613	H	0.29327	0.798015	0.748718
614	H	0.348347	0.798585	0.749094
615	H	0.364896	0.669757	0.685902
616	H	0.390873	0.589005	0.679105
617	C	0.004336	0.0177	0.013848
618	H	0.998028	0.435458	0.355723
619	C	0.556779	0.471766	0.007385
620	H	0.545614	0.438986	0.995136
621	N	0.654679	0.265686	0.014183
622	C	0.687228	0.264886	0.013095
623	C	0.639438	0.314583	0.01073
624	C	0.607634	0.319001	5.6e-05
625	C	0.591301	0.367642	0.002317
626	C	0.605713	0.417805	0.01129
627	C	0.638547	0.413824	0.012595
628	C	0.651902	0.167605	0.003432
629	C	0.635657	0.119038	0.006853
630	C	0.704758	0.277389	0.973141
631	C	0.737454	0.278595	0.973051
632	C	0.754597	0.267213	0.012747
633	H	0.672585	0.166581	0.985677
634	H	0.59533	0.286013	0.990255
635	H	0.568137	0.364494	0.997594
636	H	0.693581	0.286593	0.943782
637	H	0.748683	0.289475	0.943482
638	H	0.651982	0.447153	0.012495
639	N	0.888133	0.270619	0.014193
640	C	0.855617	0.271324	0.013099
641	C	0.903481	0.221418	0.010744
642	C	0.935612	0.216045	0.000111
643	C	0.951869	0.167599	0.002369
644	C	0.93718	0.118228	0.01129
645	C	0.904306	0.122339	0.012574
646	C	0.891232	0.367738	0.003415
647	C	0.907359	0.416625	0.006871
648	C	0.839286	0.255236	0.973152
649	C	0.806593	0.254041	0.973055
650	C	0.788256	0.268973	0.012747
651	H	0.897971	0.448589	0.991453
652	H	0.871104	0.367146	0.985611
653	H	0.948219	0.248163	0.990344
654	H	0.975179	0.170327	0.997687
655	H	0.851348	0.243431	0.943789
656	H	0.796255	0.240521	0.943489
657	C	0.004335	0.017698	0.347182
658	C	0.986762	0.470881	0.354798
659	C	0.954009	0.470193	0.359704
660	H	0.998029	0.435459	0.689054
661	C	0.556778	0.471768	0.340719
662	C	0.589078	0.467951	0.34972
663	H	0.630888	0.484873	0.412759
664	H	0.907464	0.492565	0.41229
665	H	0.545613	0.438987	0.328469
666	N	0.654679	0.265686	0.347517
667	C	0.639462	0.217216	0.3536
668	C	0.687227	0.264886	0.346429
669	C	0.639439	0.314583	0.344063
670	C	0.607633	0.319001	0.333391
671	C	0.591303	0.367642	0.335651
672	C	0.605712	0.417804	0.344625
673	C	0.638549	0.413823	0.345929
674	C	0.654477	0.364896	0.3478
675	C	0.651903	0.167605	0.336764
676	C	0.635656	0.119038	0.340186
677	C	0.605428	0.116357	0.360142
678	C	0.593487	0.165094	0.379033
679	C	0.61062	0.212864	0.377784
680	C	0.704759	0.277389	0.306475
681	C	0.737456	0.278595	0.306384
682	C	0.754599	0.267213	0.346081
683	C	0.736765	0.254095	0.385817
684	C	0.704076	0.252958	0.386028
685	H	0.672585	0.166581	0.31901
686	H	0.601471	0.245314	0.395415
687	H	0.572803	0.165829	0.396789
688	H	0.595329	0.286013	0.323589
689	H	0.568137	0.364494	0.330927
690	H	0.69358	0.286593	0.277116
691	H	0.748682	0.289475	0.276816
692	H	0.7475	0.24437	0.415394
693	H	0.692411	0.243831	0.415766
694	H	0.677762	0.367005	0.352606
695	H	0.651981	0.447151	0.345829
696	N	0.888132	0.27062	0.347527
697	C	0.903164	0.319635	0.353603
698	C	0.855616	0.271325	0.346433
699	C	0.90348	0.221418	0.344077
700	C	0.935611	0.216045	0.333445
701	C	0.951871	0.167599	0.335703
702	C	0.937181	0.118228	0.344624
703	C	0.904308	0.122339	0.345908
704	C	0.888325	0.171437	0.347786
705	C	0.891231	0.367738	0.336748
706	C	0.907358	0.416625	0.340202
707	C	0.936989	0.421084	0.360156
708	C	0.948358	0.37404	0.379071
709	C	0.931265	0.326156	0.377822
710	C	0.839288	0.255236	0.306486
711	C	0.806592	0.254041	0.306388
712	C	0.788255	0.268974	0.346081
713	C	0.804894	0.285646	0.385814
714	C	0.837577	0.286807	0.386024
715	H	0.89797	0.448587	0.324787
716	H	0.871103	0.367146	0.318945
717	H	0.939879	0.295284	0.395467
718	H	0.968506	0.374898	0.396837
719	H	0.94822	0.248163	0.323676
720	H	0.975181	0.170327	0.331022
721	H	0.851348	0.243431	0.277123
722	H	0.796254	0.240522	0.276821
723	H	0.793268	0.298017	0.415387
724	H	0.848348	0.298585	0.415763
725	H	0.864894	0.169756	0.352568
726	C	0.004336	0.017699	0.680513
727	C	0.98676	0.470882	0.688133
728	C	0.95401	0.470194	0.693035
729	H	0.998028	0.435461	0.022388
730	C	0.556778	0.471769	0.67405
731	C	0.589079	0.467952	0.683051
732	H	0.630888	0.48487	0.746094
733	H	0.907463	0.492566	0.745625
734	H	0.545613	0.438988	0.661802
735	N	0.654679	0.265686	0.680848
736	C	0.639462	0.217216	0.686931
737	C	0.687228	0.264887	0.679764
738	C	0.639438	0.314583	0.677396
739	C	0.607634	0.319001	0.666725
740	C	0.591301	0.367642	0.668982
741	C	0.605712	0.417805	0.677958
742	C	0.638547	0.413823	0.67926
743	C	0.654478	0.364896	0.681131
744	C	0.651903	0.167605	0.670097
745	C	0.635657	0.119037	0.673519
746	C	0.605426	0.116357	0.693473
747	C	0.593487	0.165094	0.712365
748	C	0.61062	0.212864	0.711118
749	C	0.704759	0.277389	0.63981
750	C	0.737456	0.278595	0.639717
751	C	0.754597	0.267213	0.679412
752	C	0.736766	0.254095	0.719152
753	C	0.704076	0.252958	0.719359
754	H	0.672585	0.166581	0.652342
755	H	0.601471	0.245314	0.728746
756	H	0.572803	0.165828	0.73012
757	H	0.59533	0.286013	0.656923
758	H	0.568137	0.364495	0.66426
759	H	0.69358	0.286593	0.610448
760	H	0.748682	0.289475	0.610151
761	H	0.7475	0.24437	0.748725
762	H	0.692409	0.243831	0.749098
763	H	0.677762	0.367005	0.685937
764	H	0.651982	0.447152	0.67916
765	N	0.888133	0.270619	0.680858
766	C	0.903164	0.319635	0.686938
767	C	0.855616	0.271325	0.679768
768	C	0.90348	0.221417	0.67741
769	C	0.935611	0.216046	0.66678
770	C	0.951869	0.167599	0.669038
771	C	0.937182	0.118228	0.677958
772	C	0.904306	0.122339	0.679239
773	C	0.888326	0.171437	0.681117
774	C	0.891232	0.367738	0.67008
775	C	0.907359	0.416625	0.673536
776	C	0.93699	0.421083	0.693491
777	C	0.948358	0.37404	0.712406
778	C	0.931265	0.326156	0.711156
779	C	0.839286	0.255236	0.63982
780	C	0.806592	0.254041	0.63972
781	C	0.788256	0.268974	0.679412
782	C	0.804893	0.285646	0.719148
783	C	0.837575	0.286807	0.719356
784	H	0.89797	0.448588	0.658121
785	H	0.871103	0.367146	0.652276
786	H	0.939877	0.295284	0.728801
787	H	0.968504	0.374898	0.730172
788	H	0.948221	0.248163	0.65701
789	H	0.975181	0.170327	0.664356
790	H	0.851348	0.243431	0.610455
791	H	0.796255	0.240521	0.610154
792	H	0.793269	0.298017	0.748718
793	H	0.848346	0.298585	0.749094
794	H	0.864895	0.169756	0.685902
795	C	0.004336	0.5177	0.013848
796	C	0.986225	0.563917	0.007389
797	H	0.998029	0.935458	0.355723
798	C	0.538473	0.518562	0.013844
799	C	0.556779	0.971766	0.007385
800	H	0.544515	0.601563	0.355744
801	H	0.997754	0.595593	0.995112
802	H	0.545614	0.938985	0.995136
803	N	0.65468	0.765687	0.014183
804	C	0.687229	0.764887	0.013095
805	C	0.639438	0.814582	0.01073
806	C	0.607634	0.819001	5.6e-05
807	C	0.591302	0.867642	0.002317
808	C	0.605713	0.917806	0.01129
809	C	0.638548	0.913825	0.012595
810	C	0.651902	0.667603	0.003432
811	C	0.635658	0.619037	0.006853
812	C	0.704758	0.777388	0.973141
813	C	0.737454	0.778593	0.973051
814	C	0.754597	0.767213	0.012747
815	H	0.645531	0.585665	0.991532
816	H	0.672586	0.666582	0.985677
817	H	0.595331	0.786011	0.990255
818	H	0.568138	0.864493	0.997594
819	H	0.693581	0.786592	0.943782
820	H	0.748681	0.789473	0.943482
821	H	0.65198	0.947153	0.012495
822	N	0.888131	0.770618	0.014193
823	C	0.855615	0.771324	0.013099
824	C	0.903481	0.721419	0.010744
825	C	0.935612	0.716043	0.000111
826	C	0.95187	0.6676	0.002369
827	C	0.93718	0.618228	0.01129
828	C	0.904307	0.622337	0.012574
829	C	0.891232	0.867738	0.003415
830	C	0.90736	0.916623	0.006871
831	C	0.839287	0.755236	0.973152
832	C	0.806593	0.754039	0.973055
833	C	0.788257	0.768975	0.012747
834	H	0.897971	0.948589	0.991453
835	H	0.871104	0.867144	0.985611
836	H	0.948219	0.748161	0.990344
837	H	0.97518	0.670325	0.997687
838	H	0.851349	0.743432	0.943789
839	H	0.796255	0.74052	0.943489
840	H	0.890873	0.589006	0.012436
841	C	0.004335	0.517698	0.347182
842	C	0.98676	0.970881	0.354798
843	C	0.95401	0.970193	0.359704
844	C	0.93916	0.520905	0.365714
845	C	0.953652	0.568526	0.349723
846	C	0.986224	0.563915	0.340723
847	H	0.998029	0.935459	0.689054
848	N	0.914601	0.523737	0.39634
849	C	0.538475	0.518565	0.347179
850	C	0.556778	0.971768	0.340719
851	C	0.589079	0.967951	0.34972
852	C	0.603091	0.517013	0.365624
853	C	0.588421	0.567206	0.359707
854	C	0.555813	0.566062	0.354829
855	N	0.626656	0.516905	0.396399
856	H	0.544515	0.601564	0.689079
857	H	0.630888	0.984874	0.412759
858	H	0.633279	0.549552	0.412324
859	H	0.909969	0.557267	0.412732
860	H	0.907462	0.992566	0.41229
861	H	0.997755	0.595595	0.328445
862	H	0.545613	0.938987	0.328469
863	N	0.654679	0.765685	0.347517
864	C	0.639462	0.717217	0.3536
865	C	0.687228	0.764885	0.346429
866	C	0.63944	0.81458	0.344063
867	C	0.607633	0.818999	0.333391
868	C	0.591301	0.86764	0.335651
869	C	0.605712	0.917804	0.344625
870	C	0.638549	0.913823	0.345929
871	C	0.654477	0.864897	0.3478
872	C	0.651903	0.667605	0.336764
873	C	0.635657	0.619039	0.340186
874	C	0.605428	0.616357	0.360142
875	C	0.593487	0.665095	0.379033
876	C	0.61062	0.712864	0.377784
877	C	0.704759	0.777386	0.306475
878	C	0.737456	0.778595	0.306384
879	C	0.754597	0.767212	0.346081
880	C	0.736765	0.754093	0.385817
881	C	0.704076	0.752957	0.386028
882	H	0.645533	0.585663	0.324866
883	H	0.672585	0.66658	0.31901
884	H	0.601471	0.745312	0.395415
885	H	0.572803	0.665827	0.396789
886	H	0.59533	0.786013	0.323589
887	H	0.568137	0.864495	0.330927
888	H	0.69358	0.786594	0.277116
889	H	0.748682	0.789475	0.276816
890	H	0.7475	0.74437	0.415394
891	H	0.692409	0.74383	0.415766
892	H	0.677762	0.867004	0.352606
893	H	0.651982	0.947152	0.345829
894	N	0.888132	0.77062	0.347527
895	C	0.903164	0.819633	0.353603
896	C	0.855616	0.771322	0.346433
897	C	0.90348	0.721417	0.344077
898	C	0.935611	0.716045	0.333445
899	C	0.951871	0.667598	0.335703
900	C	0.937182	0.618227	0.344624
901	C	0.904306	0.622339	0.345908
902	C	0.888326	0.671436	0.347786
903	C	0.891232	0.867737	0.336748
904	C	0.907359	0.916625	0.340202
905	C	0.93699	0.921085	0.360156
906	C	0.948358	0.874039	0.379071
907	C	0.931265	0.826155	0.377822
908	C	0.839286	0.755234	0.306486
909	C	0.806592	0.754041	0.306388
910	C	0.788256	0.768973	0.346081
911	C	0.804892	0.785644	0.385814
912	C	0.837577	0.786807	0.386024
913	H	0.89797	0.948588	0.324787
914	H	0.871103	0.867146	0.318945
915	H	0.939876	0.795282	0.395467
916	H	0.968506	0.874898	0.396837
917	H	0.94822	0.748164	0.323676
918	H	0.975181	0.670327	0.331022
919	H	0.851348	0.74343	0.277123
920	H	0.796254	0.740522	0.276822
921	H	0.793269	0.798018	0.415387
922	H	0.848346	0.798584	0.415763
923	H	0.864895	0.669756	0.352568
924	H	0.890872	0.589004	0.34577
925	C	0.004335	0.517699	0.680513
926	C	0.986761	0.970882	0.688133
927	C	0.95401	0.97019	0.693035
928	C	0.939158	0.520902	0.699045
929	C	0.953653	0.568523	0.683054
930	C	0.986224	0.563916	0.674057
931	H	0.998028	0.935461	0.022388
932	N	0.914599	0.523738	0.729675
933	C	0.538475	0.518566	0.680513
934	C	0.556778	0.971765	0.67405
935	C	0.589079	0.967952	0.683051
936	C	0.603092	0.517014	0.698959
937	C	0.588422	0.567207	0.693042
938	C	0.555814	0.566063	0.688164
939	N	0.626654	0.516902	0.72973
940	H	0.544514	0.601566	0.022411
941	H	0.630888	0.984871	0.746094
942	H	0.633279	0.549552	0.745656
943	H	0.909968	0.557268	0.746063
944	H	0.907463	0.992567	0.745625
945	H	0.997753	0.595596	0.661777
946	H	0.545614	0.938984	0.661802
947	N	0.654679	0.765686	0.680848
948	C	0.639462	0.717214	0.686935
949	C	0.687228	0.764886	0.679764
950	C	0.639438	0.814581	0.677396
951	C	0.607634	0.819	0.666725
952	C	0.591301	0.867641	0.668982
953	C	0.605712	0.917805	0.677958
954	C	0.638547	0.913824	0.67926
955	C	0.654478	0.864894	0.681131
956	C	0.651901	0.667606	0.670097
957	C	0.635657	0.619036	0.673519
958	C	0.605426	0.616358	0.693473
959	C	0.593487	0.665092	0.712365
960	C	0.61062	0.712865	0.711118
961	C	0.704757	0.777387	0.63981
962	C	0.737456	0.778596	0.639717
963	C	0.754597	0.767212	0.679412
964	C	0.736766	0.754094	0.719152
965	C	0.704077	0.752958	0.719359
966	H	0.645533	0.585664	0.658201
967	H	0.672585	0.666581	0.652342
968	H	0.601472	0.745313	0.728746
969	H	0.572801	0.665827	0.73012
970	H	0.59533	0.786014	0.656923
971	H	0.568137	0.864492	0.66426
972	H	0.69358	0.786591	0.610448
973	H	0.748683	0.789476	0.610147
974	H	0.7475	0.744371	0.748725
975	H	0.69241	0.743831	0.749098
976	H	0.677763	0.867005	0.685937
977	H	0.651982	0.947152	0.67916
978	N	0.888133	0.770621	0.680858
979	C	0.903165	0.819634	0.686938
980	C	0.855617	0.771323	0.679768
981	C	0.90348	0.721418	0.67741
982	C	0.935611	0.716046	0.66678
983	C	0.951869	0.667599	0.669038
984	C	0.93718	0.618228	0.677958
985	C	0.904306	0.62234	0.679239
986	C	0.888326	0.671437	0.681117
987	C	0.891232	0.867737	0.67008
988	C	0.907359	0.916622	0.673536
989	C	0.93699	0.921082	0.693491
990	C	0.948356	0.87404	0.712406
991	C	0.931265	0.826156	0.711156
992	C	0.839286	0.755235	0.63982
993	C	0.806592	0.754042	0.63972
994	C	0.788256	0.768974	0.679412
995	C	0.804893	0.785645	0.719148
996	C	0.837576	0.786807	0.719356
997	H	0.897971	0.948589	0.658121
998	H	0.871103	0.867147	0.652276
999	H	0.939877	0.795283	0.728801
1000	H	0.968504	0.874899	0.730172
1001	H	0.948221	0.748164	0.65701
1002	H	0.975179	0.670328	0.664356
1003	H	0.851348	0.743431	0.610455
1004	H	0.796255	0.740523	0.610154
1005	H	0.793269	0.798015	0.748718
1006	H	0.848346	0.798585	0.749094
1007	H	0.864895	0.669757	0.685902
1008	H	0.890873	0.589005	0.679105
