data_C576H396N132_2018-02-15_10:40:59
#******************************************
#
# CIF file created by Zeo++
# Zeo++ is an open source package to
# analyze microporous materials
#
#*******************************************

_cell_length_a		50.1026   
_cell_length_b		50.1026   
_cell_length_c		29.1202   
_cell_angle_alpha		90   
_cell_angle_beta		90   
_cell_angle_gamma		120   

_symmetry_space_group_name_H-M		'P1'
_symmetry_Int_Tables_number		1
_symmetry_cell_setting		Monoclinic

loop_
_symmetry_equiv_pos_as_xyz
'+x,+y,+z'

loop_
_atom_site_label
_atom_site_type_symbol
_atom_site_fract_x
_atom_site_fract_y
_atom_site_fract_z
1	N	0.187721	0.348414	0.014736
2	C	0.204226	0.331792	0.01386
3	C	0.204207	0.381564	0.014458
4	C	0.154597	0.331776	0.014959
5	C	0.137651	0.329428	0.055023
6	C	0.105016	0.312947	0.05509
7	C	0.08757	0.298469	0.014963
8	C	0.104959	0.301085	0.974922
9	C	0.137581	0.317141	0.97496
10	C	0.219671	0.330592	0.974002
11	C	0.235882	0.314166	0.973349
12	C	0.237838	0.298363	0.012624
13	C	0.222464	0.300075	0.052591
14	C	0.205905	0.316134	0.053134
15	C	0.222714	0.398782	0.051963
16	C	0.238993	0.431412	0.051545
17	C	0.237491	0.448699	0.013891
18	C	0.218818	0.431025	0.976395
19	C	0.202687	0.398397	0.976601
20	H	0.246998	0.314616	0.943699
21	H	0.219124	0.341778	0.944949
22	H	0.195163	0.316595	0.082739
23	H	0.222806	0.289156	0.082082
24	H	0.149152	0.339642	0.084699
25	H	0.094006	0.312094	0.085103
26	H	0.224416	0.387485	0.080069
27	H	0.251873	0.442523	0.079845
28	H	0.217118	0.441697	0.947587
29	H	0.189766	0.386812	0.94859
30	H	0.149033	0.318268	0.9453
31	H	0.094026	0.290628	0.945059
32	N	0.354451	0.181763	0.01497
33	C	0.33747	0.198031	0.015275
34	C	0.338275	0.148601	0.015942
35	C	0.387653	0.198353	0.017049
36	C	0.403885	0.218595	0.053629
37	C	0.436511	0.235051	0.055068
38	C	0.454668	0.23144	0.020843
39	C	0.438165	0.21165	0.98371
40	C	0.405571	0.195593	0.981814
41	C	0.316263	0.19359	0.050627
42	C	0.299932	0.209851	0.051302
43	C	0.304816	0.232431	0.017799
44	C	0.325606	0.236259	0.981845
45	C	0.34148	0.219486	0.980564
46	C	0.33148	0.132194	0.057797
47	C	0.315453	0.099589	0.058747
48	C	0.306431	0.081691	0.017914
49	C	0.312883	0.098416	0.976103
50	C	0.328376	0.131034	0.975111
51	H	0.284065	0.20476	0.076793
52	H	0.312296	0.178084	0.076211
53	H	0.356555	0.223407	0.9543
54	H	0.329906	0.251954	0.956344
55	H	0.391869	0.22181	0.079332
56	H	0.446986	0.25023	0.081455
57	H	0.337857	0.144064	0.088123
58	H	0.310103	0.088949	0.090073
59	H	0.306705	0.086859	0.945482
60	H	0.33275	0.142069	0.944146
61	H	0.394833	0.181517	0.954393
62	H	0.449871	0.20832	0.957607
63	C	0.288732	0.249767	0.018801
64	N	0.278329	0.254982	0.31166
65	C	0.262357	0.270287	0.307037
66	C	0.254825	0.281875	0.012957
67	N	0.265556	0.276872	0.053194
68	C	0.282058	0.262051	0.058591
69	H	0.255323	0.272297	0.274989
70	N	0.292293	0.261931	0.101624
71	H	0.307479	0.255736	0.10745
72	H	0.287887	0.272021	0.126648
73	C	0.290378	0.04828	0.018309
74	N	0.266659	0.032752	0.32149
75	C	0.249079	0.501497	0.318024
76	C	0.254523	0.482227	0.014173
77	N	0.278425	0.497929	0.043924
78	C	0.29661	0.029246	0.047698
79	H	0.231648	0.492642	0.294543
80	N	0.320447	0.039569	0.077637
81	H	0.336778	0.060941	0.077839
82	H	0.32407	0.024994	0.094745
83	C	0.488093	0.247821	0.021889
84	N	0.503638	0.259398	0.314968
85	C	0.034887	0.275443	0.310181
86	C	0.0541	0.281693	0.015719
87	N	0.038469	0.269873	0.055772
88	C	0.507137	0.253348	0.061272
89	H	0.04384	0.283424	0.27835
90	N	0.496805	0.241864	0.10381
91	H	0.475357	0.226852	0.109511
92	H	0.511313	0.2456	0.128572
93	N	0.187721	0.348414	0.348071
94	C	0.204226	0.331792	0.347196
95	C	0.204207	0.381564	0.347793
96	C	0.154597	0.331776	0.348291
97	C	0.137651	0.329428	0.388356
98	C	0.105016	0.312947	0.388425
99	C	0.08757	0.298469	0.348298
100	C	0.104959	0.301085	0.308255
101	C	0.137581	0.317141	0.308294
102	C	0.219671	0.330592	0.307334
103	C	0.235882	0.314166	0.306683
104	C	0.237838	0.298363	0.345956
105	C	0.222464	0.300075	0.385925
106	C	0.205905	0.316134	0.386467
107	C	0.222714	0.398782	0.385296
108	C	0.238993	0.431412	0.384877
109	C	0.237491	0.448699	0.347223
110	C	0.218818	0.431025	0.309727
111	C	0.202687	0.398397	0.309936
112	H	0.246998	0.314616	0.277033
113	H	0.219124	0.341778	0.278284
114	H	0.195163	0.316595	0.416072
115	H	0.222806	0.289156	0.415416
116	H	0.149152	0.339642	0.418033
117	H	0.094006	0.312094	0.418435
118	H	0.224416	0.387485	0.413401
119	H	0.251873	0.442523	0.413177
120	H	0.217118	0.441697	0.280921
121	H	0.189766	0.386812	0.281923
122	H	0.149033	0.318268	0.278634
123	H	0.094026	0.290628	0.278393
124	N	0.354451	0.181763	0.348305
125	C	0.33747	0.198031	0.348607
126	C	0.338275	0.148601	0.349273
127	C	0.387653	0.198353	0.350382
128	C	0.403885	0.218595	0.386962
129	C	0.436511	0.235051	0.388401
130	C	0.454668	0.23144	0.354177
131	C	0.438165	0.21165	0.317043
132	C	0.405571	0.195593	0.315148
133	C	0.316263	0.19359	0.383961
134	C	0.299932	0.209851	0.384634
135	C	0.304816	0.232431	0.351131
136	C	0.325606	0.236259	0.315178
137	C	0.34148	0.219486	0.313898
138	C	0.33148	0.132194	0.391131
139	C	0.315453	0.099589	0.392079
140	C	0.306431	0.081691	0.351248
141	C	0.312883	0.098416	0.309437
142	C	0.328376	0.131034	0.308446
143	H	0.284065	0.20476	0.410125
144	H	0.312296	0.178084	0.409544
145	H	0.356555	0.223407	0.287635
146	H	0.329906	0.251954	0.289677
147	H	0.391869	0.22181	0.412666
148	H	0.446986	0.25023	0.414788
149	H	0.337857	0.144064	0.421457
150	H	0.310103	0.088949	0.423404
151	H	0.306705	0.086859	0.278815
152	H	0.33275	0.142069	0.277479
153	H	0.394833	0.181517	0.287729
154	H	0.449871	0.20832	0.290943
155	C	0.288732	0.249767	0.352134
156	N	0.278329	0.254982	0.644993
157	C	0.262357	0.270287	0.64037
158	C	0.254825	0.281875	0.346289
159	N	0.265556	0.276872	0.386526
160	C	0.282058	0.262051	0.391924
161	H	0.255323	0.272297	0.608324
162	N	0.292293	0.261931	0.434956
163	H	0.307479	0.255736	0.440784
164	H	0.287887	0.272021	0.45998
165	C	0.290378	0.04828	0.351643
166	N	0.266659	0.032752	0.654824
167	C	0.249079	0.501497	0.651356
168	C	0.254523	0.482227	0.347508
169	N	0.278425	0.497929	0.377257
170	C	0.29661	0.029246	0.381031
171	H	0.231648	0.492642	0.627877
172	N	0.320447	0.039569	0.410969
173	H	0.336778	0.060941	0.411172
174	H	0.32407	0.024994	0.428078
175	C	0.488093	0.247821	0.355221
176	N	0.503638	0.259398	0.6483
177	C	0.034887	0.275443	0.643512
178	C	0.0541	0.281693	0.349053
179	N	0.038469	0.269873	0.389105
180	C	0.507137	0.253348	0.394606
181	H	0.04384	0.283424	0.611682
182	N	0.496805	0.241864	0.437144
183	H	0.475357	0.226852	0.442844
184	H	0.511313	0.2456	0.461903
185	N	0.187721	0.348414	0.681404
186	C	0.204226	0.331792	0.680528
187	C	0.204207	0.381564	0.681126
188	C	0.154597	0.331776	0.681624
189	C	0.137651	0.329428	0.721689
190	C	0.105016	0.312947	0.721757
191	C	0.08757	0.298469	0.68163
192	C	0.104959	0.301085	0.641586
193	C	0.137581	0.317141	0.641627
194	C	0.219671	0.330592	0.640666
195	C	0.235882	0.314166	0.640017
196	C	0.237838	0.298363	0.679288
197	C	0.222464	0.300075	0.719257
198	C	0.205905	0.316134	0.7198
199	C	0.222714	0.398782	0.718629
200	C	0.238993	0.431412	0.71821
201	C	0.237491	0.448699	0.680556
202	C	0.218818	0.431025	0.643059
203	C	0.202687	0.398397	0.643269
204	H	0.246998	0.314616	0.610367
205	H	0.219124	0.341778	0.611617
206	H	0.195163	0.316595	0.749405
207	H	0.222806	0.289156	0.748749
208	H	0.149152	0.339642	0.751366
209	H	0.094006	0.312094	0.751771
210	H	0.224416	0.387485	0.746736
211	H	0.251873	0.442523	0.746513
212	H	0.217118	0.441697	0.614254
213	H	0.189766	0.386812	0.615257
214	H	0.149033	0.318268	0.611967
215	H	0.094026	0.290628	0.611727
216	N	0.354451	0.181763	0.681637
217	C	0.33747	0.198031	0.681943
218	C	0.338275	0.148601	0.682609
219	C	0.387653	0.198353	0.683715
220	C	0.403885	0.218595	0.720294
221	C	0.436511	0.235051	0.721733
222	C	0.454668	0.23144	0.687509
223	C	0.438165	0.21165	0.650377
224	C	0.405571	0.195593	0.648482
225	C	0.316263	0.19359	0.717293
226	C	0.299932	0.209851	0.717969
227	C	0.304816	0.232431	0.684467
228	C	0.325606	0.236259	0.648512
229	C	0.34148	0.219486	0.647232
230	C	0.33148	0.132194	0.724463
231	C	0.315453	0.099589	0.725411
232	C	0.306431	0.081691	0.68458
233	C	0.312883	0.098416	0.642771
234	C	0.328376	0.131034	0.641778
235	H	0.284065	0.20476	0.74346
236	H	0.312296	0.178084	0.742877
237	H	0.356555	0.223407	0.620968
238	H	0.329906	0.251954	0.623011
239	H	0.391869	0.22181	0.745998
240	H	0.446986	0.25023	0.74812
241	H	0.337857	0.144064	0.754789
242	H	0.310103	0.088949	0.75674
243	H	0.306705	0.086859	0.612149
244	H	0.33275	0.142069	0.610814
245	H	0.394833	0.181517	0.621061
246	H	0.449871	0.20832	0.624275
247	C	0.288732	0.249767	0.685466
248	N	0.278329	0.254982	0.978325
249	C	0.262357	0.270287	0.973703
250	C	0.254825	0.281875	0.679621
251	N	0.265556	0.276872	0.719862
252	C	0.282058	0.262051	0.725256
253	H	0.255323	0.272297	0.941656
254	N	0.292293	0.261931	0.768292
255	H	0.307479	0.255736	0.774116
256	H	0.287887	0.272021	0.793316
257	C	0.290378	0.04828	0.684975
258	N	0.266659	0.032752	0.988157
259	C	0.249079	0.501497	0.984692
260	C	0.254523	0.482227	0.680841
261	N	0.278425	0.497929	0.71059
262	C	0.29661	0.029246	0.714364
263	H	0.231648	0.492642	0.96121
264	N	0.320447	0.039569	0.744302
265	H	0.336778	0.060941	0.744504
266	H	0.32407	0.024994	0.76141
267	C	0.488093	0.247821	0.688557
268	N	0.503638	0.259398	0.981635
269	C	0.034887	0.275443	0.976848
270	C	0.0541	0.281693	0.682386
271	N	0.038469	0.269873	0.722437
272	C	0.507137	0.253348	0.727938
273	H	0.04384	0.283424	0.945015
274	N	0.496805	0.241864	0.770476
275	H	0.475357	0.226852	0.776176
276	H	0.511313	0.2456	0.795239
277	N	0.187721	0.848415	0.014736
278	C	0.204226	0.831791	0.01386
279	C	0.204208	0.881565	0.014458
280	C	0.154599	0.831777	0.014959
281	C	0.137651	0.829429	0.055023
282	C	0.105017	0.812948	0.05509
283	C	0.087569	0.798468	0.014963
284	C	0.104958	0.801084	0.974922
285	C	0.13758	0.81714	0.97496
286	C	0.21967	0.83059	0.974002
287	C	0.235881	0.814165	0.973349
288	C	0.237837	0.798362	0.012624
289	C	0.222465	0.800076	0.052591
290	C	0.205907	0.816135	0.053134
291	C	0.222714	0.898781	0.051963
292	C	0.238992	0.931411	0.051545
293	C	0.237492	0.9487	0.013888
294	C	0.218818	0.931023	0.976392
295	C	0.202687	0.898398	0.976601
296	H	0.246997	0.814614	0.943699
297	H	0.219123	0.841777	0.944949
298	H	0.195164	0.816596	0.08274
299	H	0.222807	0.789157	0.082083
300	H	0.149151	0.839643	0.084698
301	H	0.094006	0.812095	0.085103
302	H	0.224416	0.887483	0.080069
303	H	0.251873	0.942521	0.079845
304	H	0.217119	0.941696	0.947587
305	H	0.189766	0.88681	0.94859
306	H	0.149033	0.818267	0.9453
307	H	0.094026	0.790627	0.945059
308	N	0.354451	0.681764	0.014973
309	C	0.337471	0.698032	0.015275
310	C	0.338276	0.648602	0.015942
311	C	0.387652	0.698353	0.017049
312	C	0.403885	0.718595	0.05363
313	C	0.436512	0.735052	0.055068
314	C	0.454667	0.731439	0.020843
315	C	0.438166	0.711651	0.98371
316	C	0.405571	0.695594	0.981814
317	C	0.316265	0.693591	0.050628
318	C	0.299932	0.709851	0.051303
319	C	0.304816	0.732432	0.0178
320	C	0.325605	0.736258	0.981845
321	C	0.341479	0.719487	0.980564
322	C	0.331481	0.632195	0.057798
323	C	0.315452	0.599588	0.058747
324	C	0.306431	0.581693	0.017915
325	C	0.312883	0.598415	0.976103
326	C	0.328376	0.631036	0.975111
327	H	0.284066	0.704762	0.076794
328	H	0.312297	0.678085	0.076212
329	H	0.356555	0.723407	0.9543
330	H	0.329905	0.751953	0.956344
331	H	0.391869	0.721812	0.079331
332	H	0.446986	0.750231	0.081455
333	H	0.337857	0.644064	0.088123
334	H	0.310104	0.58895	0.090073
335	H	0.306705	0.58686	0.945482
336	H	0.332749	0.64207	0.944146
337	H	0.394833	0.681517	0.954397
338	H	0.44987	0.70832	0.957611
339	C	0.288732	0.749765	0.018801
340	N	0.278329	0.754983	0.31166
341	C	0.262356	0.770286	0.307038
342	C	0.254825	0.781876	0.012957
343	N	0.265557	0.776873	0.053194
344	C	0.282059	0.762052	0.058591
345	H	0.255322	0.772296	0.274989
346	N	0.292296	0.761934	0.101624
347	H	0.307482	0.755739	0.107449
348	H	0.28789	0.772024	0.126648
349	C	0.290379	0.548282	0.018309
350	N	0.266658	0.532753	0.321491
351	C	0.249079	0.001498	0.318023
352	C	0.254523	0.982226	0.014173
353	N	0.278425	0.997928	0.043924
354	C	0.29661	0.529245	0.047698
355	H	0.231648	0.992641	0.294542
356	N	0.320447	0.53957	0.077637
357	H	0.336778	0.560941	0.077838
358	H	0.324069	0.524993	0.094745
359	C	0.488094	0.74782	0.02189
360	N	0.503637	0.759397	0.314968
361	C	0.034887	0.775442	0.310181
362	C	0.0541	0.781694	0.015719
363	N	0.03847	0.769874	0.055772
364	C	0.507137	0.753349	0.061273
365	H	0.043839	0.783423	0.27835
366	N	0.496804	0.741865	0.10381
367	H	0.475357	0.726852	0.109512
368	H	0.511312	0.745601	0.128572
369	N	0.187721	0.848415	0.348071
370	C	0.204226	0.831791	0.347196
371	C	0.204208	0.881565	0.347793
372	C	0.154599	0.831777	0.348291
373	C	0.137651	0.829429	0.388356
374	C	0.105017	0.812948	0.388425
375	C	0.087569	0.798468	0.348298
376	C	0.104958	0.801084	0.308255
377	C	0.13758	0.81714	0.308295
378	C	0.21967	0.83059	0.307334
379	C	0.235881	0.814165	0.306683
380	C	0.237837	0.798362	0.345956
381	C	0.222465	0.800076	0.385925
382	C	0.205907	0.816135	0.386467
383	C	0.222714	0.898781	0.385296
384	C	0.238992	0.931411	0.384877
385	C	0.237492	0.9487	0.347223
386	C	0.218818	0.931023	0.309727
387	C	0.202687	0.898398	0.309936
388	H	0.246997	0.814614	0.277033
389	H	0.219123	0.841777	0.278284
390	H	0.195164	0.816596	0.416072
391	H	0.222807	0.789157	0.415416
392	H	0.149151	0.839643	0.41803
393	H	0.094006	0.812095	0.418435
394	H	0.224416	0.887483	0.413401
395	H	0.251873	0.942521	0.413177
396	H	0.217119	0.941696	0.28092
397	H	0.189766	0.88681	0.281923
398	H	0.149033	0.818267	0.278634
399	H	0.094026	0.790627	0.278394
400	N	0.354451	0.681764	0.348305
401	C	0.337471	0.698032	0.348607
402	C	0.338276	0.648602	0.349277
403	C	0.387652	0.698353	0.350382
404	C	0.403885	0.718595	0.386962
405	C	0.436512	0.735052	0.388401
406	C	0.454667	0.731439	0.354177
407	C	0.438166	0.711651	0.317044
408	C	0.405571	0.695594	0.315148
409	C	0.316265	0.693591	0.383961
410	C	0.299932	0.709851	0.384637
411	C	0.304816	0.732432	0.351131
412	C	0.325605	0.736258	0.315178
413	C	0.341479	0.719487	0.313898
414	C	0.331481	0.632195	0.391131
415	C	0.315452	0.599588	0.392079
416	C	0.306431	0.581693	0.351248
417	C	0.312883	0.598415	0.309438
418	C	0.328376	0.631036	0.308446
419	H	0.284066	0.704762	0.410128
420	H	0.312297	0.678085	0.409544
421	H	0.356555	0.723407	0.287635
422	H	0.329905	0.751953	0.289676
423	H	0.391869	0.721812	0.412666
424	H	0.446986	0.750231	0.414788
425	H	0.337857	0.644064	0.421457
426	H	0.310104	0.58895	0.423407
427	H	0.306705	0.58686	0.278815
428	H	0.332749	0.64207	0.27748
429	H	0.394833	0.681517	0.287729
430	H	0.44987	0.70832	0.290944
431	C	0.288732	0.749765	0.352134
432	N	0.278329	0.754983	0.644993
433	C	0.262356	0.770286	0.64037
434	C	0.254825	0.781876	0.346289
435	N	0.265557	0.776873	0.386526
436	C	0.282059	0.762052	0.391924
437	H	0.255322	0.772296	0.608324
438	N	0.292296	0.761934	0.434956
439	H	0.307482	0.755739	0.44078
440	H	0.28789	0.772024	0.45998
441	C	0.290379	0.548282	0.351643
442	N	0.266658	0.532753	0.654824
443	C	0.249079	0.001498	0.651356
444	C	0.254523	0.982226	0.347508
445	N	0.278425	0.997928	0.377257
446	C	0.29661	0.529245	0.381031
447	H	0.231648	0.992641	0.627877
448	N	0.320447	0.53957	0.410969
449	H	0.336778	0.560941	0.411172
450	H	0.324069	0.524993	0.428078
451	C	0.488094	0.74782	0.355224
452	N	0.503637	0.759397	0.648303
453	C	0.034887	0.775442	0.643512
454	C	0.0541	0.781694	0.349053
455	N	0.03847	0.769874	0.389105
456	C	0.507137	0.753349	0.394606
457	H	0.043839	0.783423	0.611682
458	N	0.496804	0.741865	0.437144
459	H	0.475357	0.726852	0.442844
460	H	0.511312	0.745601	0.461906
461	N	0.187721	0.848415	0.681404
462	C	0.204226	0.831791	0.680528
463	C	0.204208	0.881565	0.681126
464	C	0.154599	0.831777	0.681624
465	C	0.137651	0.829429	0.721689
466	C	0.105017	0.812948	0.721757
467	C	0.087569	0.798468	0.68163
468	C	0.104958	0.801084	0.641589
469	C	0.13758	0.81714	0.641627
470	C	0.21967	0.83059	0.640666
471	C	0.235881	0.814165	0.640017
472	C	0.237837	0.798362	0.679288
473	C	0.222465	0.800076	0.719257
474	C	0.205907	0.816135	0.7198
475	C	0.222714	0.898781	0.718629
476	C	0.238992	0.931411	0.71821
477	C	0.237492	0.9487	0.680556
478	C	0.218818	0.931023	0.643059
479	C	0.202687	0.898398	0.643269
480	H	0.246997	0.814614	0.610367
481	H	0.219123	0.841777	0.611617
482	H	0.195164	0.816596	0.749405
483	H	0.222807	0.789157	0.748749
484	H	0.149151	0.839643	0.751366
485	H	0.094006	0.812095	0.751771
486	H	0.224416	0.887483	0.746736
487	H	0.251873	0.942521	0.74651
488	H	0.217119	0.941696	0.614254
489	H	0.189766	0.88681	0.615257
490	H	0.149033	0.818267	0.611967
491	H	0.094026	0.790627	0.611727
492	N	0.354451	0.681764	0.681637
493	C	0.337471	0.698032	0.681943
494	C	0.338276	0.648602	0.682609
495	C	0.387652	0.698353	0.683715
496	C	0.403885	0.718595	0.720294
497	C	0.436512	0.735052	0.721733
498	C	0.454667	0.731439	0.687509
499	C	0.438166	0.711651	0.650377
500	C	0.405571	0.695594	0.648482
501	C	0.316265	0.693591	0.717293
502	C	0.299932	0.709851	0.717969
503	C	0.304816	0.732432	0.684467
504	C	0.325605	0.736258	0.648512
505	C	0.341479	0.719487	0.647232
506	C	0.331481	0.632195	0.724463
507	C	0.315452	0.599588	0.725414
508	C	0.306431	0.581693	0.68458
509	C	0.312883	0.598415	0.642771
510	C	0.328376	0.631036	0.641778
511	H	0.284066	0.704762	0.74346
512	H	0.312297	0.678085	0.74288
513	H	0.356555	0.723407	0.620968
514	H	0.329905	0.751953	0.623008
515	H	0.391869	0.721812	0.745998
516	H	0.446986	0.750231	0.74812
517	H	0.337857	0.644064	0.754789
518	H	0.310104	0.58895	0.75674
519	H	0.306705	0.58686	0.612149
520	H	0.332749	0.64207	0.610814
521	H	0.394833	0.681517	0.621064
522	H	0.44987	0.70832	0.624278
523	C	0.288732	0.749765	0.685466
524	N	0.278329	0.754983	0.978328
525	C	0.262356	0.770286	0.973703
526	C	0.254825	0.781876	0.679625
527	N	0.265557	0.776873	0.719862
528	C	0.282059	0.762052	0.725256
529	H	0.255322	0.772296	0.941656
530	N	0.292296	0.761934	0.768292
531	H	0.307482	0.755739	0.774116
532	H	0.28789	0.772024	0.793312
533	C	0.290379	0.548282	0.684975
534	N	0.266658	0.532753	0.988157
535	C	0.249079	0.001498	0.984688
536	C	0.254523	0.982226	0.680841
537	N	0.278425	0.997928	0.71059
538	C	0.29661	0.529245	0.714364
539	H	0.231648	0.992641	0.96121
540	N	0.320447	0.53957	0.744302
541	H	0.336778	0.560941	0.744504
542	H	0.324069	0.524993	0.76141
543	C	0.488094	0.74782	0.688557
544	N	0.503637	0.759397	0.981635
545	C	0.034887	0.775442	0.976848
546	C	0.0541	0.781694	0.682386
547	N	0.03847	0.769874	0.722437
548	C	0.507137	0.753349	0.727938
549	H	0.043839	0.783423	0.945015
550	N	0.496804	0.741865	0.770476
551	H	0.475357	0.726852	0.77618
552	H	0.511312	0.745601	0.795239
553	N	0.687721	0.348414	0.014736
554	C	0.704225	0.331792	0.01386
555	C	0.704206	0.381564	0.014458
556	C	0.654597	0.331776	0.014959
557	C	0.637651	0.329428	0.055023
558	C	0.605015	0.312947	0.05509
559	C	0.587571	0.298469	0.014963
560	C	0.60496	0.301085	0.974922
561	C	0.637582	0.317141	0.97496
562	C	0.71967	0.330592	0.974002
563	C	0.735881	0.314166	0.973349
564	C	0.737838	0.298363	0.012624
565	C	0.722465	0.300075	0.052591
566	C	0.705905	0.316134	0.053134
567	C	0.722713	0.398782	0.051963
568	C	0.738994	0.431412	0.051545
569	C	0.737491	0.448699	0.013891
570	C	0.718817	0.431025	0.976395
571	C	0.702687	0.398397	0.976601
572	H	0.746998	0.314616	0.943699
573	H	0.719124	0.341778	0.944949
574	H	0.695164	0.316595	0.082739
575	H	0.722805	0.289156	0.082082
576	H	0.649151	0.339642	0.084699
577	H	0.594006	0.312094	0.085103
578	H	0.724415	0.387485	0.080069
579	H	0.751872	0.442523	0.079845
580	H	0.717118	0.441697	0.947587
581	H	0.689765	0.386812	0.94859
582	H	0.649033	0.318268	0.9453
583	H	0.594025	0.290628	0.945059
584	N	0.854451	0.181763	0.01497
585	C	0.83747	0.198031	0.015275
586	C	0.838275	0.148601	0.015942
587	C	0.887653	0.198353	0.017049
588	C	0.903885	0.218595	0.053629
589	C	0.936511	0.235051	0.055068
590	C	0.954668	0.23144	0.020843
591	C	0.938165	0.21165	0.98371
592	C	0.905571	0.195593	0.981814
593	C	0.816263	0.19359	0.050627
594	C	0.799931	0.209851	0.051302
595	C	0.804816	0.232431	0.017799
596	C	0.825606	0.236259	0.981845
597	C	0.84148	0.219486	0.980564
598	C	0.83148	0.132194	0.057797
599	C	0.815453	0.099589	0.058747
600	C	0.806431	0.081691	0.017914
601	C	0.812883	0.098416	0.976103
602	C	0.828376	0.131034	0.975111
603	H	0.784065	0.20476	0.076793
604	H	0.812296	0.178084	0.076211
605	H	0.856555	0.223407	0.9543
606	H	0.829906	0.251954	0.956344
607	H	0.891869	0.22181	0.079332
608	H	0.946986	0.25023	0.081455
609	H	0.837857	0.144064	0.088123
610	H	0.810103	0.088949	0.090073
611	H	0.806705	0.086859	0.945482
612	H	0.83275	0.142069	0.944146
613	H	0.894833	0.181517	0.954393
614	H	0.949869	0.20832	0.957607
615	C	0.788733	0.249767	0.018801
616	N	0.77833	0.254982	0.31166
617	C	0.762357	0.270287	0.307037
618	C	0.754824	0.281875	0.012957
619	N	0.765555	0.276872	0.053194
620	C	0.782057	0.262051	0.058591
621	H	0.755322	0.272297	0.274989
622	N	0.792292	0.261931	0.101624
623	H	0.807479	0.255736	0.10745
624	H	0.787887	0.272021	0.126648
625	C	0.790378	0.04828	0.018309
626	N	0.766659	0.032752	0.32149
627	C	0.74908	0.501497	0.318024
628	C	0.754522	0.482227	0.014173
629	N	0.778424	0.497929	0.043924
630	C	0.79661	0.029246	0.047698
631	H	0.731647	0.492642	0.294543
632	N	0.820447	0.039569	0.077637
633	H	0.836778	0.060941	0.077839
634	H	0.82407	0.024994	0.094745
635	C	0.988093	0.247821	0.021889
636	N	0.003638	0.259398	0.314968
637	C	0.534887	0.275443	0.310181
638	C	0.554101	0.281693	0.015719
639	N	0.538468	0.269873	0.055772
640	C	0.007137	0.253348	0.061272
641	H	0.543841	0.283424	0.27835
642	N	0.996805	0.241864	0.10381
643	H	0.975357	0.226852	0.109511
644	H	0.011313	0.2456	0.128572
645	N	0.687721	0.348414	0.348071
646	C	0.704225	0.331792	0.347196
647	C	0.704206	0.381564	0.347793
648	C	0.654597	0.331776	0.348291
649	C	0.637651	0.329428	0.388356
650	C	0.605015	0.312947	0.388425
651	C	0.587571	0.298469	0.348298
652	C	0.60496	0.301085	0.308255
653	C	0.637582	0.317141	0.308294
654	C	0.71967	0.330592	0.307334
655	C	0.735881	0.314166	0.306683
656	C	0.737838	0.298363	0.345956
657	C	0.722465	0.300075	0.385925
658	C	0.705905	0.316134	0.386467
659	C	0.722713	0.398782	0.385296
660	C	0.738994	0.431412	0.384877
661	C	0.737491	0.448699	0.347223
662	C	0.718817	0.431025	0.309727
663	C	0.702687	0.398397	0.309936
664	H	0.746998	0.314616	0.277033
665	H	0.719124	0.341778	0.278284
666	H	0.695164	0.316595	0.416072
667	H	0.722805	0.289156	0.415416
668	H	0.649151	0.339642	0.418033
669	H	0.594006	0.312094	0.418435
670	H	0.724415	0.387485	0.413401
671	H	0.751872	0.442523	0.413177
672	H	0.717118	0.441697	0.280921
673	H	0.689765	0.386812	0.281923
674	H	0.649033	0.318268	0.278634
675	H	0.594025	0.290628	0.278393
676	N	0.854451	0.181763	0.348305
677	C	0.83747	0.198031	0.348607
678	C	0.838275	0.148601	0.349273
679	C	0.887653	0.198353	0.350382
680	C	0.903885	0.218595	0.386962
681	C	0.936511	0.235051	0.388401
682	C	0.954668	0.23144	0.354177
683	C	0.938165	0.21165	0.317043
684	C	0.905571	0.195593	0.315148
685	C	0.816263	0.19359	0.383961
686	C	0.799931	0.209851	0.384634
687	C	0.804816	0.232431	0.351131
688	C	0.825606	0.236259	0.315178
689	C	0.84148	0.219486	0.313898
690	C	0.83148	0.132194	0.391131
691	C	0.815453	0.099589	0.392079
692	C	0.806431	0.081691	0.351248
693	C	0.812883	0.098416	0.309437
694	C	0.828376	0.131034	0.308446
695	H	0.784065	0.20476	0.410125
696	H	0.812296	0.178084	0.409544
697	H	0.856555	0.223407	0.287635
698	H	0.829906	0.251954	0.289677
699	H	0.891869	0.22181	0.412666
700	H	0.946986	0.25023	0.414788
701	H	0.837857	0.144064	0.421457
702	H	0.810103	0.088949	0.423404
703	H	0.806705	0.086859	0.278815
704	H	0.83275	0.142069	0.277479
705	H	0.894833	0.181517	0.287729
706	H	0.949869	0.20832	0.290943
707	C	0.788733	0.249767	0.352134
708	N	0.77833	0.254982	0.644993
709	C	0.762357	0.270287	0.64037
710	C	0.754824	0.281875	0.346289
711	N	0.765555	0.276872	0.386526
712	C	0.782057	0.262051	0.391924
713	H	0.755322	0.272297	0.608324
714	N	0.792292	0.261931	0.434956
715	H	0.807479	0.255736	0.440784
716	H	0.787887	0.272021	0.45998
717	C	0.790378	0.04828	0.351643
718	N	0.766659	0.032752	0.654824
719	C	0.74908	0.501497	0.651356
720	C	0.754522	0.482227	0.347508
721	N	0.778424	0.497929	0.377257
722	C	0.79661	0.029246	0.381031
723	H	0.731647	0.492642	0.627877
724	N	0.820447	0.039569	0.410969
725	H	0.836778	0.060941	0.411172
726	H	0.82407	0.024994	0.428078
727	C	0.988093	0.247821	0.355221
728	N	0.003638	0.259398	0.6483
729	C	0.534887	0.275443	0.643512
730	C	0.554101	0.281693	0.349053
731	N	0.538468	0.269873	0.389105
732	C	0.007137	0.253348	0.394606
733	H	0.543841	0.283424	0.611682
734	N	0.996805	0.241864	0.437144
735	H	0.975357	0.226852	0.442844
736	H	0.011313	0.2456	0.461903
737	N	0.687721	0.348414	0.681404
738	C	0.704225	0.331792	0.680528
739	C	0.704206	0.381564	0.681126
740	C	0.654597	0.331776	0.681624
741	C	0.637651	0.329428	0.721689
742	C	0.605015	0.312947	0.721757
743	C	0.587571	0.298469	0.68163
744	C	0.60496	0.301085	0.641586
745	C	0.637582	0.317141	0.641627
746	C	0.71967	0.330592	0.640666
747	C	0.735881	0.314166	0.640017
748	C	0.737838	0.298363	0.679288
749	C	0.722465	0.300075	0.719257
750	C	0.705905	0.316134	0.7198
751	C	0.722713	0.398782	0.718629
752	C	0.738994	0.431412	0.71821
753	C	0.737491	0.448699	0.680556
754	C	0.718817	0.431025	0.643059
755	C	0.702687	0.398397	0.643269
756	H	0.746998	0.314616	0.610367
757	H	0.719124	0.341778	0.611617
758	H	0.695164	0.316595	0.749405
759	H	0.722805	0.289156	0.748749
760	H	0.649151	0.339642	0.751366
761	H	0.594006	0.312094	0.751771
762	H	0.724415	0.387485	0.746736
763	H	0.751872	0.442523	0.746513
764	H	0.717118	0.441697	0.614254
765	H	0.689765	0.386812	0.615257
766	H	0.649033	0.318268	0.611967
767	H	0.594025	0.290628	0.611727
768	N	0.854451	0.181763	0.681637
769	C	0.83747	0.198031	0.681943
770	C	0.838275	0.148601	0.682609
771	C	0.887653	0.198353	0.683715
772	C	0.903885	0.218595	0.720294
773	C	0.936511	0.235051	0.721733
774	C	0.954668	0.23144	0.687509
775	C	0.938165	0.21165	0.650377
776	C	0.905571	0.195593	0.648482
777	C	0.816263	0.19359	0.717293
778	C	0.799931	0.209851	0.717969
779	C	0.804816	0.232431	0.684467
780	C	0.825606	0.236259	0.648512
781	C	0.84148	0.219486	0.647232
782	C	0.83148	0.132194	0.724463
783	C	0.815453	0.099589	0.725411
784	C	0.806431	0.081691	0.68458
785	C	0.812883	0.098416	0.642771
786	C	0.828376	0.131034	0.641778
787	H	0.784065	0.20476	0.74346
788	H	0.812296	0.178084	0.742877
789	H	0.856555	0.223407	0.620968
790	H	0.829906	0.251954	0.623011
791	H	0.891869	0.22181	0.745998
792	H	0.946986	0.25023	0.74812
793	H	0.837857	0.144064	0.754789
794	H	0.810103	0.088949	0.75674
795	H	0.806705	0.086859	0.612149
796	H	0.83275	0.142069	0.610814
797	H	0.894833	0.181517	0.621061
798	H	0.949869	0.20832	0.624275
799	C	0.788733	0.249767	0.685466
800	N	0.77833	0.254982	0.978325
801	C	0.762357	0.270287	0.973703
802	C	0.754824	0.281875	0.679621
803	N	0.765555	0.276872	0.719862
804	C	0.782057	0.262051	0.725256
805	H	0.755322	0.272297	0.941656
806	N	0.792292	0.261931	0.768292
807	H	0.807479	0.255736	0.774116
808	H	0.787887	0.272021	0.793316
809	C	0.790378	0.04828	0.684975
810	N	0.766659	0.032752	0.988157
811	C	0.74908	0.501497	0.984692
812	C	0.754522	0.482227	0.680841
813	N	0.778424	0.497929	0.71059
814	C	0.79661	0.029246	0.714364
815	H	0.731647	0.492642	0.96121
816	N	0.820447	0.039569	0.744302
817	H	0.836778	0.060941	0.744504
818	H	0.82407	0.024994	0.76141
819	C	0.988093	0.247821	0.688557
820	N	0.003638	0.259398	0.981635
821	C	0.534887	0.275443	0.976848
822	C	0.554101	0.281693	0.682386
823	N	0.538468	0.269873	0.722437
824	C	0.007137	0.253348	0.727938
825	H	0.543841	0.283424	0.945015
826	N	0.996805	0.241864	0.770476
827	H	0.975357	0.226852	0.776176
828	H	0.011313	0.2456	0.795239
829	N	0.687721	0.848415	0.014736
830	C	0.704226	0.831791	0.01386
831	C	0.704208	0.881565	0.014458
832	C	0.654599	0.831777	0.014959
833	C	0.637651	0.829429	0.055023
834	C	0.605016	0.812948	0.05509
835	C	0.58757	0.798468	0.014963
836	C	0.604958	0.801084	0.974922
837	C	0.63758	0.81714	0.97496
838	C	0.719671	0.83059	0.974002
839	C	0.73588	0.814165	0.973349
840	C	0.737838	0.798362	0.012624
841	C	0.722465	0.800076	0.052591
842	C	0.705907	0.816135	0.053134
843	C	0.722714	0.898781	0.051963
844	C	0.738992	0.931411	0.051545
845	C	0.737492	0.9487	0.013888
846	C	0.718818	0.931023	0.976392
847	C	0.702687	0.898398	0.976601
848	H	0.746996	0.814614	0.943699
849	H	0.719123	0.841777	0.944949
850	H	0.695164	0.816596	0.08274
851	H	0.722807	0.789157	0.082083
852	H	0.649151	0.839643	0.084698
853	H	0.594006	0.812095	0.085103
854	H	0.724416	0.887483	0.080069
855	H	0.751873	0.942521	0.079845
856	H	0.717119	0.941696	0.947587
857	H	0.689766	0.88681	0.94859
858	H	0.649033	0.818267	0.9453
859	H	0.594026	0.790627	0.945059
860	N	0.854452	0.681764	0.014973
861	C	0.837472	0.698032	0.015275
862	C	0.838276	0.648602	0.015942
863	C	0.887651	0.698353	0.017049
864	C	0.903884	0.718595	0.05363
865	C	0.936513	0.735052	0.055068
866	C	0.954667	0.731439	0.020843
867	C	0.938166	0.711651	0.98371
868	C	0.90557	0.695594	0.981814
869	C	0.816264	0.693591	0.050628
870	C	0.799932	0.709851	0.051303
871	C	0.804816	0.732432	0.0178
872	C	0.825606	0.736258	0.981845
873	C	0.841479	0.719487	0.980564
874	C	0.831482	0.632195	0.057798
875	C	0.815452	0.599588	0.058747
876	C	0.80643	0.581693	0.017915
877	C	0.812884	0.598415	0.976103
878	C	0.828375	0.631036	0.975111
879	H	0.784067	0.704762	0.076794
880	H	0.812298	0.678085	0.076212
881	H	0.856554	0.723407	0.9543
882	H	0.829905	0.751953	0.956344
883	H	0.891868	0.721812	0.079331
884	H	0.946986	0.750231	0.081455
885	H	0.837857	0.644064	0.088123
886	H	0.810105	0.58895	0.090073
887	H	0.806705	0.58686	0.945482
888	H	0.832749	0.64207	0.944146
889	H	0.894832	0.681517	0.954397
890	H	0.94987	0.70832	0.957611
891	C	0.788731	0.749765	0.018801
892	N	0.778329	0.754983	0.31166
893	C	0.762355	0.770286	0.307038
894	C	0.754826	0.781876	0.012957
895	N	0.765557	0.776873	0.053194
896	C	0.782059	0.762052	0.058591
897	H	0.755322	0.772296	0.274989
898	N	0.792295	0.761934	0.101624
899	H	0.807482	0.755739	0.107449
900	H	0.787889	0.772024	0.126648
901	C	0.79038	0.548282	0.018309
902	N	0.766658	0.532753	0.321491
903	C	0.749079	0.001498	0.318023
904	C	0.754523	0.982226	0.014173
905	N	0.778425	0.997928	0.043924
906	C	0.796611	0.529245	0.047698
907	H	0.731648	0.992641	0.294542
908	N	0.820447	0.53957	0.077637
909	H	0.836777	0.560941	0.077838
910	H	0.82407	0.524993	0.094745
911	C	0.988094	0.74782	0.02189
912	N	0.003636	0.759397	0.314968
913	C	0.534887	0.775442	0.310181
914	C	0.554101	0.781694	0.015719
915	N	0.538469	0.769874	0.055772
916	C	0.007137	0.753349	0.061273
917	H	0.54384	0.783423	0.27835
918	N	0.996804	0.741865	0.10381
919	H	0.975356	0.726852	0.109512
920	H	0.011312	0.745601	0.128572
921	N	0.687721	0.848415	0.348071
922	C	0.704226	0.831791	0.347196
923	C	0.704208	0.881565	0.347793
924	C	0.654599	0.831777	0.348291
925	C	0.637651	0.829429	0.388356
926	C	0.605016	0.812948	0.388425
927	C	0.58757	0.798468	0.348298
928	C	0.604958	0.801084	0.308255
929	C	0.63758	0.81714	0.308295
930	C	0.719671	0.83059	0.307334
931	C	0.73588	0.814165	0.306683
932	C	0.737838	0.798362	0.345956
933	C	0.722465	0.800076	0.385925
934	C	0.705907	0.816135	0.386467
935	C	0.722714	0.898781	0.385296
936	C	0.738992	0.931411	0.384877
937	C	0.737492	0.9487	0.347223
938	C	0.718818	0.931023	0.309727
939	C	0.702687	0.898398	0.309936
940	H	0.746996	0.814614	0.277033
941	H	0.719123	0.841777	0.278284
942	H	0.695164	0.816596	0.416072
943	H	0.722807	0.789157	0.415416
944	H	0.649151	0.839643	0.41803
945	H	0.594006	0.812095	0.418435
946	H	0.724416	0.887483	0.413401
947	H	0.751873	0.942521	0.413177
948	H	0.717119	0.941696	0.28092
949	H	0.689766	0.88681	0.281923
950	H	0.649033	0.818267	0.278634
951	H	0.594026	0.790627	0.278394
952	N	0.854452	0.681764	0.348305
953	C	0.837472	0.698032	0.348607
954	C	0.838276	0.648602	0.349277
955	C	0.887651	0.698353	0.350382
956	C	0.903884	0.718595	0.386962
957	C	0.936513	0.735052	0.388401
958	C	0.954667	0.731439	0.354177
959	C	0.938166	0.711651	0.317044
960	C	0.90557	0.695594	0.315148
961	C	0.816264	0.693591	0.383961
962	C	0.799932	0.709851	0.384637
963	C	0.804816	0.732432	0.351131
964	C	0.825606	0.736258	0.315178
965	C	0.841479	0.719487	0.313898
966	C	0.831482	0.632195	0.391131
967	C	0.815452	0.599588	0.392079
968	C	0.80643	0.581693	0.351248
969	C	0.812884	0.598415	0.309438
970	C	0.828375	0.631036	0.308446
971	H	0.784067	0.704762	0.410128
972	H	0.812298	0.678085	0.409544
973	H	0.856554	0.723407	0.287635
974	H	0.829905	0.751953	0.289676
975	H	0.891868	0.721812	0.412666
976	H	0.946986	0.750231	0.414788
977	H	0.837857	0.644064	0.421457
978	H	0.810105	0.58895	0.423407
979	H	0.806705	0.58686	0.278815
980	H	0.832749	0.64207	0.27748
981	H	0.894832	0.681517	0.287729
982	H	0.94987	0.70832	0.290944
983	C	0.788731	0.749765	0.352134
984	N	0.778329	0.754983	0.644993
985	C	0.762355	0.770286	0.64037
986	C	0.754826	0.781876	0.346289
987	N	0.765557	0.776873	0.386526
988	C	0.782059	0.762052	0.391924
989	H	0.755322	0.772296	0.608324
990	N	0.792295	0.761934	0.434956
991	H	0.807482	0.755739	0.44078
992	H	0.787889	0.772024	0.45998
993	C	0.79038	0.548282	0.351643
994	N	0.766658	0.532753	0.654824
995	C	0.749079	0.001498	0.651356
996	C	0.754523	0.982226	0.347508
997	N	0.778425	0.997928	0.377257
998	C	0.796611	0.529245	0.381031
999	H	0.731648	0.992641	0.627877
1000	N	0.820447	0.53957	0.410969
1001	H	0.836777	0.560941	0.411172
1002	H	0.82407	0.524993	0.428078
1003	C	0.988094	0.74782	0.355224
1004	N	0.003636	0.759397	0.648303
1005	C	0.534887	0.775442	0.643512
1006	C	0.554101	0.781694	0.349053
1007	N	0.538469	0.769874	0.389105
1008	C	0.007137	0.753349	0.394606
1009	H	0.54384	0.783423	0.611682
1010	N	0.996804	0.741865	0.437144
1011	H	0.975356	0.726852	0.442844
1012	H	0.011312	0.745601	0.461906
1013	N	0.687721	0.848415	0.681404
1014	C	0.704226	0.831791	0.680528
1015	C	0.704208	0.881565	0.681126
1016	C	0.654599	0.831777	0.681624
1017	C	0.637651	0.829429	0.721689
1018	C	0.605016	0.812948	0.721757
1019	C	0.58757	0.798468	0.68163
1020	C	0.604958	0.801084	0.641589
1021	C	0.63758	0.81714	0.641627
1022	C	0.719671	0.83059	0.640666
1023	C	0.73588	0.814165	0.640017
1024	C	0.737838	0.798362	0.679288
1025	C	0.722465	0.800076	0.719257
1026	C	0.705907	0.816135	0.7198
1027	C	0.722714	0.898781	0.718629
1028	C	0.738992	0.931411	0.71821
1029	C	0.737492	0.9487	0.680556
1030	C	0.718818	0.931023	0.643059
1031	C	0.702687	0.898398	0.643269
1032	H	0.746996	0.814614	0.610367
1033	H	0.719123	0.841777	0.611617
1034	H	0.695164	0.816596	0.749405
1035	H	0.722807	0.789157	0.748749
1036	H	0.649151	0.839643	0.751366
1037	H	0.594006	0.812095	0.751771
1038	H	0.724416	0.887483	0.746736
1039	H	0.751873	0.942521	0.74651
1040	H	0.717119	0.941696	0.614254
1041	H	0.689766	0.88681	0.615257
1042	H	0.649033	0.818267	0.611967
1043	H	0.594026	0.790627	0.611727
1044	N	0.854452	0.681764	0.681637
1045	C	0.837472	0.698032	0.681943
1046	C	0.838276	0.648602	0.682609
1047	C	0.887651	0.698353	0.683715
1048	C	0.903884	0.718595	0.720294
1049	C	0.936513	0.735052	0.721733
1050	C	0.954667	0.731439	0.687509
1051	C	0.938166	0.711651	0.650377
1052	C	0.90557	0.695594	0.648482
1053	C	0.816264	0.693591	0.717293
1054	C	0.799932	0.709851	0.717969
1055	C	0.804816	0.732432	0.684467
1056	C	0.825606	0.736258	0.648512
1057	C	0.841479	0.719487	0.647232
1058	C	0.831482	0.632195	0.724463
1059	C	0.815452	0.599588	0.725414
1060	C	0.80643	0.581693	0.68458
1061	C	0.812884	0.598415	0.642771
1062	C	0.828375	0.631036	0.641778
1063	H	0.784067	0.704762	0.74346
1064	H	0.812298	0.678085	0.74288
1065	H	0.856554	0.723407	0.620968
1066	H	0.829905	0.751953	0.623008
1067	H	0.891868	0.721812	0.745998
1068	H	0.946986	0.750231	0.74812
1069	H	0.837857	0.644064	0.754789
1070	H	0.810105	0.58895	0.75674
1071	H	0.806705	0.58686	0.612149
1072	H	0.832749	0.64207	0.610814
1073	H	0.894832	0.681517	0.621064
1074	H	0.94987	0.70832	0.624278
1075	C	0.788731	0.749765	0.685466
1076	N	0.778329	0.754983	0.978328
1077	C	0.762355	0.770286	0.973703
1078	C	0.754826	0.781876	0.679625
1079	N	0.765557	0.776873	0.719862
1080	C	0.782059	0.762052	0.725256
1081	H	0.755322	0.772296	0.941656
1082	N	0.792295	0.761934	0.768292
1083	H	0.807482	0.755739	0.774116
1084	H	0.787889	0.772024	0.793312
1085	C	0.79038	0.548282	0.684975
1086	N	0.766658	0.532753	0.988157
1087	C	0.749079	0.001498	0.984688
1088	C	0.754523	0.982226	0.680841
1089	N	0.778425	0.997928	0.71059
1090	C	0.796611	0.529245	0.714364
1091	H	0.731648	0.992641	0.96121
1092	N	0.820447	0.53957	0.744302
1093	H	0.836777	0.560941	0.744504
1094	H	0.82407	0.524993	0.76141
1095	C	0.988094	0.74782	0.688557
1096	N	0.003636	0.759397	0.981635
1097	C	0.534887	0.775442	0.976848
1098	C	0.554101	0.781694	0.682386
1099	N	0.538469	0.769874	0.722437
1100	C	0.007137	0.753349	0.727938
1101	H	0.54384	0.783423	0.945015
1102	N	0.996804	0.741865	0.770476
1103	H	0.975356	0.726852	0.77618
1104	H	0.011312	0.745601	0.795239
