data_C432H252N108O144_2018-02-15_10:32:44
#******************************************
#
# CIF file created by Zeo++
# Zeo++ is an open source package to
# analyze microporous materials
#
#*******************************************

_cell_length_a		43.8098   
_cell_length_b		43.8098   
_cell_length_c		30.0868   
_cell_angle_alpha		90   
_cell_angle_beta		90   
_cell_angle_gamma		120   

_symmetry_space_group_name_H-M		'P1'
_symmetry_Int_Tables_number		1
_symmetry_cell_setting		Monoclinic

loop_
_symmetry_equiv_pos_as_xyz
'+x,+y,+z'

loop_
_atom_site_label
_atom_site_type_symbol
_atom_site_fract_x
_atom_site_fract_y
_atom_site_fract_z
1	C	0.176222	0.36891	0.955316
2	C	0.139907	0.34327	0.95492
3	C	0.127458	0.306578	0.955239
4	C	0.153108	0.295911	0.954894
5	C	0.1898	0.320154	0.28859
6	C	0.200478	0.356477	0.954877
7	H	0.144677	0.269673	0.957799
8	H	0.226708	0.374271	0.957905
9	H	0.122099	0.351699	0.957845
10	C	0.187309	0.405122	0.962036
11	C	0.214935	0.309079	0.295301
12	C	0.091246	0.281439	0.961917
13	O	0.249129	0.334137	0.968577
14	O	0.162252	0.414252	0.968697
15	O	0.082111	0.247246	0.968531
16	C	0.322526	0.128971	0.043037
17	C	0.35796	0.156827	0.043073
18	C	0.367434	0.192848	0.04306
19	C	0.339571	0.200418	0.043082
20	C	0.303548	0.173874	0.376434
21	C	0.295977	0.138441	0.043099
22	H	0.345892	0.226134	0.040326
23	H	0.270259	0.119048	0.040355
24	H	0.377356	0.15051	0.040264
25	C	0.314411	0.093358	0.038272
26	C	0.276045	0.181982	0.371678
27	C	0.403042	0.220343	0.038242
28	O	0.242654	0.155065	0.031945
29	O	0.341328	0.086881	0.031894
30	O	0.409517	0.253741	0.031904
31	C	0.225469	0.260815	0.314779
32	C	0.247762	0.276694	0.018527
33	C	0.265303	0.261164	0.04024
34	C	0.260797	0.228363	0.025036
35	C	0.237673	0.212084	0.321946
36	H	0.25028	0.299306	0.031758
37	C	0.219975	0.227556	0.301304
38	H	0.234852	0.189616	0.307903
39	H	0.2042	0.215005	0.274532
40	N	0.286453	0.277714	0.078115
41	O	0.311658	0.307877	0.069134
42	O	0.268759	0.280245	0.109325
43	N	0.207468	0.274865	0.294069
44	H	0.187728	0.258925	0.275347
45	N	0.280563	0.215013	0.042804
46	H	0.300472	0.231051	0.061051
47	C	0.235579	0.463925	0.314809
48	C	0.219723	0.470342	0.018578
49	C	0.235256	0.00342	0.040273
50	C	0.26804	0.031718	0.025032
51	C	0.284302	0.024868	0.321926
52	H	0.197123	0.450248	0.031836
53	C	0.268826	0.491692	0.3013
54	H	0.306758	0.044515	0.307859
55	H	0.281361	0.488466	0.274513
56	N	0.218728	0.008026	0.078167
57	O	0.188554	0.003053	0.06922
58	O	0.216226	0.987817	0.109381
59	N	0.22152	0.431869	0.294108
60	H	0.23745	0.428068	0.275366
61	N	0.281389	0.06484	0.042781
62	H	0.265359	0.068712	0.061039
63	C	0.032452	0.270914	0.31472
64	C	0.026039	0.24863	0.018476
65	C	0.492969	0.231099	0.040195
66	C	0.464677	0.235605	0.024985
67	C	0.471522	0.258723	0.321889
68	H	0.046133	0.246111	0.03171
69	C	0.00469	0.276412	0.301243
70	H	0.451878	0.261549	0.307848
71	H	0.007915	0.292184	0.274467
72	N	0.488372	0.209956	0.078078
73	O	0.493322	0.184745	0.069107
74	O	0.508599	0.227654	0.109282
75	N	0.064503	0.288911	0.29401
76	H	0.068308	0.30865	0.275283
77	N	0.431561	0.215843	0.042755
78	H	0.42769	0.195938	0.061011
79	C	0.176222	0.36891	0.288648
80	C	0.139907	0.34327	0.288255
81	C	0.127458	0.306578	0.288571
82	C	0.153108	0.295911	0.288227
83	C	0.1898	0.320154	0.621924
84	C	0.200478	0.356477	0.28821
85	H	0.144677	0.269673	0.29113
86	H	0.226708	0.374271	0.291239
87	H	0.122099	0.351699	0.291177
88	C	0.187309	0.405122	0.295368
89	C	0.214935	0.309079	0.628634
90	C	0.091246	0.281439	0.295251
91	O	0.249129	0.334137	0.301912
92	O	0.162252	0.414252	0.302031
93	O	0.082111	0.247246	0.301864
94	C	0.322526	0.128971	0.376371
95	C	0.35796	0.156827	0.376408
96	C	0.367434	0.192848	0.376394
97	C	0.339571	0.200418	0.376414
98	C	0.303548	0.173874	0.70977
99	C	0.295977	0.138441	0.376431
100	H	0.345892	0.226134	0.373659
101	H	0.270259	0.119048	0.373689
102	H	0.377356	0.15051	0.373599
103	C	0.314411	0.093358	0.371605
104	C	0.276045	0.181982	0.70501
105	C	0.403042	0.220343	0.371575
106	O	0.242654	0.155065	0.36528
107	O	0.341328	0.086881	0.365227
108	O	0.409517	0.253741	0.365236
109	C	0.225469	0.260815	0.648111
110	C	0.247762	0.276694	0.351859
111	C	0.265303	0.261164	0.373572
112	C	0.260797	0.228363	0.35837
113	C	0.237673	0.212084	0.655281
114	H	0.25028	0.299306	0.36509
115	C	0.219975	0.227556	0.634637
116	H	0.234852	0.189616	0.641235
117	H	0.2042	0.215005	0.607864
118	N	0.286453	0.277714	0.411449
119	O	0.311658	0.307877	0.402469
120	O	0.268759	0.280245	0.442659
121	N	0.207468	0.274865	0.627401
122	H	0.187728	0.258925	0.608679
123	N	0.280563	0.215013	0.376138
124	H	0.300472	0.231051	0.394385
125	C	0.235579	0.463925	0.648141
126	C	0.219723	0.470342	0.351912
127	C	0.235256	0.00342	0.373606
128	C	0.26804	0.031718	0.358366
129	C	0.284302	0.024868	0.655261
130	H	0.197123	0.450248	0.36517
131	C	0.268826	0.491692	0.634634
132	H	0.306758	0.044515	0.641191
133	H	0.281361	0.488466	0.607848
134	N	0.218728	0.008026	0.411503
135	O	0.188554	0.003053	0.402552
136	O	0.216226	0.987817	0.442712
137	N	0.22152	0.431869	0.627441
138	H	0.23745	0.428068	0.608699
139	N	0.281389	0.06484	0.376115
140	H	0.265359	0.068712	0.394372
141	C	0.032452	0.270914	0.648055
142	C	0.026039	0.24863	0.351809
143	C	0.492969	0.231099	0.373529
144	C	0.464677	0.235605	0.35832
145	C	0.471522	0.258723	0.655224
146	H	0.046133	0.246111	0.365044
147	C	0.00469	0.276412	0.634577
148	H	0.451878	0.261549	0.641181
149	H	0.007915	0.292184	0.607801
150	N	0.488372	0.209956	0.411413
151	O	0.493322	0.184745	0.402439
152	O	0.508599	0.227654	0.442616
153	N	0.064503	0.288911	0.627345
154	H	0.068308	0.30865	0.608616
155	N	0.431561	0.215843	0.376088
156	H	0.42769	0.195938	0.394346
157	C	0.176222	0.36891	0.62198
158	C	0.139907	0.34327	0.621588
159	C	0.127458	0.306578	0.621904
160	C	0.153108	0.295911	0.621561
161	C	0.1898	0.320154	0.955256
162	C	0.200478	0.356477	0.621545
163	H	0.144677	0.269673	0.624463
164	H	0.226708	0.374271	0.624573
165	H	0.122099	0.351699	0.62451
166	C	0.187309	0.405122	0.628701
167	C	0.214935	0.309079	0.961966
168	C	0.091246	0.281439	0.628584
169	O	0.249129	0.334137	0.635245
170	O	0.162252	0.414252	0.635365
171	O	0.082111	0.247246	0.635199
172	C	0.322526	0.128971	0.709703
173	C	0.35796	0.156827	0.70974
174	C	0.367434	0.192848	0.709726
175	C	0.339571	0.200418	0.70975
176	C	0.303548	0.173874	0.043101
177	C	0.295977	0.138441	0.709766
178	H	0.345892	0.226134	0.706994
179	H	0.270259	0.119048	0.707021
180	H	0.377356	0.15051	0.706931
181	C	0.314411	0.093358	0.70494
182	C	0.276045	0.181982	0.038343
183	C	0.403042	0.220343	0.70491
184	O	0.242654	0.155065	0.698612
185	O	0.341328	0.086881	0.698562
186	O	0.409517	0.253741	0.698572
187	C	0.225469	0.260815	0.981447
188	C	0.247762	0.276694	0.685194
189	C	0.265303	0.261164	0.706908
190	C	0.260797	0.228363	0.691702
191	C	0.237673	0.212084	0.988613
192	H	0.25028	0.299306	0.698426
193	C	0.219975	0.227556	0.967969
194	H	0.234852	0.189616	0.97457
195	H	0.2042	0.215005	0.9412
196	N	0.286453	0.277714	0.744782
197	O	0.311658	0.307877	0.735801
198	O	0.268759	0.280245	0.775991
199	N	0.207468	0.274865	0.960737
200	H	0.187728	0.258925	0.942014
201	N	0.280563	0.215013	0.70947
202	H	0.300472	0.231051	0.727718
203	C	0.235579	0.463925	0.981477
204	C	0.219723	0.470342	0.685244
205	C	0.235256	0.00342	0.706941
206	C	0.26804	0.031718	0.691699
207	C	0.284302	0.024868	0.988593
208	H	0.197123	0.450248	0.698502
209	C	0.268826	0.491692	0.967966
210	H	0.306758	0.044515	0.974527
211	H	0.281361	0.488466	0.94118
212	N	0.218728	0.008026	0.744835
213	O	0.188554	0.003053	0.735887
214	O	0.216226	0.987817	0.776048
215	N	0.22152	0.431869	0.960773
216	H	0.23745	0.428068	0.942031
217	N	0.281389	0.06484	0.709447
218	H	0.265359	0.068712	0.727708
219	C	0.032452	0.270914	0.981387
220	C	0.026039	0.24863	0.685144
221	C	0.492969	0.231099	0.706861
222	C	0.464677	0.235605	0.691652
223	C	0.471522	0.258723	0.988556
224	H	0.046133	0.246111	0.698376
225	C	0.00469	0.276412	0.967909
226	H	0.451878	0.261549	0.974514
227	H	0.007915	0.292184	0.941133
228	N	0.488372	0.209956	0.744745
229	O	0.493322	0.184745	0.735774
230	O	0.508599	0.227654	0.775948
231	N	0.064503	0.288911	0.960677
232	H	0.068308	0.30865	0.941951
233	N	0.431561	0.215843	0.709421
234	H	0.42769	0.195938	0.727678
235	C	0.176222	0.868909	0.955316
236	C	0.139908	0.843269	0.95492
237	C	0.127458	0.806577	0.955239
238	C	0.153108	0.795911	0.954894
239	C	0.1898	0.820154	0.28859
240	C	0.200478	0.856477	0.954877
241	H	0.144678	0.769672	0.957799
242	H	0.226709	0.874273	0.957905
243	H	0.122099	0.851701	0.957845
244	C	0.187307	0.905121	0.962036
245	C	0.214935	0.809079	0.295301
246	C	0.091245	0.781438	0.961917
247	O	0.249128	0.834136	0.968577
248	O	0.162251	0.914251	0.968697
249	O	0.08211	0.747245	0.968531
250	C	0.322526	0.62897	0.043037
251	C	0.35796	0.656827	0.043073
252	C	0.367433	0.692847	0.04306
253	C	0.339572	0.700419	0.043082
254	C	0.303548	0.673875	0.376434
255	C	0.295977	0.63844	0.043099
256	H	0.34589	0.726133	0.040326
257	H	0.270258	0.619047	0.040355
258	H	0.377355	0.650509	0.040264
259	C	0.314411	0.593356	0.038272
260	C	0.276045	0.681982	0.371678
261	C	0.403041	0.720342	0.038242
262	O	0.242654	0.655064	0.031945
263	O	0.341329	0.58688	0.031894
264	O	0.409516	0.753739	0.031904
265	C	0.225468	0.760814	0.314779
266	C	0.247761	0.776694	0.018527
267	C	0.265303	0.761164	0.04024
268	C	0.260797	0.728363	0.025036
269	C	0.237673	0.712085	0.321946
270	H	0.250279	0.799305	0.031758
271	C	0.219975	0.727556	0.301304
272	H	0.234851	0.689615	0.307903
273	H	0.2042	0.715005	0.274532
274	N	0.286453	0.777714	0.078115
275	O	0.311658	0.807877	0.069134
276	O	0.268759	0.780244	0.109325
277	N	0.207468	0.774865	0.294069
278	H	0.187727	0.758924	0.275347
279	N	0.280563	0.715013	0.042804
280	H	0.300472	0.731051	0.061051
281	C	0.235579	0.963924	0.314809
282	C	0.219721	0.970342	0.018578
283	C	0.235256	0.503421	0.040273
284	C	0.26804	0.531718	0.025031
285	C	0.284301	0.524867	0.321926
286	H	0.197122	0.950247	0.031836
287	C	0.268826	0.991691	0.3013
288	H	0.306757	0.544514	0.307859
289	H	0.281361	0.988465	0.274513
290	N	0.218727	0.508025	0.078167
291	O	0.188554	0.503054	0.06922
292	O	0.216227	0.487817	0.109381
293	N	0.221521	0.931869	0.294108
294	H	0.237449	0.928068	0.275366
295	N	0.28139	0.564841	0.042781
296	H	0.265359	0.568712	0.061039
297	C	0.032451	0.770914	0.31472
298	C	0.026038	0.748629	0.018476
299	C	0.492971	0.731099	0.040195
300	C	0.464677	0.735606	0.024985
301	C	0.471523	0.758723	0.321889
302	H	0.046134	0.746112	0.03171
303	C	0.004689	0.776412	0.301243
304	H	0.451878	0.761549	0.307848
305	H	0.007914	0.792184	0.274467
306	N	0.48837	0.709955	0.078078
307	O	0.493322	0.684744	0.069107
308	O	0.508599	0.727654	0.109282
309	N	0.064504	0.78891	0.29401
310	H	0.068308	0.808649	0.275283
311	N	0.431561	0.715843	0.042755
312	H	0.427689	0.695938	0.061011
313	C	0.176222	0.868909	0.288648
314	C	0.139908	0.843269	0.288255
315	C	0.127458	0.806577	0.288571
316	C	0.153108	0.795911	0.288227
317	C	0.1898	0.820154	0.621924
318	C	0.200478	0.856477	0.28821
319	H	0.144678	0.769672	0.29113
320	H	0.226709	0.874273	0.291239
321	H	0.122099	0.851701	0.291177
322	C	0.187307	0.905121	0.295368
323	C	0.214935	0.809079	0.628634
324	C	0.091245	0.781438	0.295251
325	O	0.249128	0.834136	0.301912
326	O	0.162251	0.914251	0.302031
327	O	0.08211	0.747245	0.301864
328	C	0.322526	0.62897	0.376371
329	C	0.35796	0.656827	0.376408
330	C	0.367433	0.692847	0.376394
331	C	0.339572	0.700419	0.376414
332	C	0.303548	0.673875	0.70977
333	C	0.295977	0.63844	0.376431
334	H	0.34589	0.726133	0.373659
335	H	0.270258	0.619047	0.373689
336	H	0.377355	0.650509	0.373599
337	C	0.314411	0.593356	0.371605
338	C	0.276045	0.681982	0.70501
339	C	0.403041	0.720342	0.371575
340	O	0.242654	0.655064	0.36528
341	O	0.341329	0.58688	0.365227
342	O	0.409516	0.753739	0.365236
343	C	0.225468	0.760814	0.648111
344	C	0.247761	0.776694	0.351859
345	C	0.265303	0.761164	0.373572
346	C	0.260797	0.728363	0.35837
347	C	0.237673	0.712085	0.655281
348	H	0.250279	0.799305	0.36509
349	C	0.219975	0.727556	0.634637
350	H	0.234851	0.689615	0.641235
351	H	0.2042	0.715005	0.607864
352	N	0.286453	0.777714	0.411449
353	O	0.311658	0.807877	0.402469
354	O	0.268759	0.780244	0.442659
355	N	0.207468	0.774865	0.627401
356	H	0.187727	0.758924	0.608679
357	N	0.280563	0.715013	0.376138
358	H	0.300472	0.731051	0.394385
359	C	0.235579	0.963924	0.648141
360	C	0.219721	0.970342	0.351912
361	C	0.235256	0.503421	0.373606
362	C	0.26804	0.531718	0.358366
363	C	0.284301	0.524867	0.655261
364	H	0.197122	0.950247	0.36517
365	C	0.268826	0.991691	0.634634
366	H	0.306757	0.544514	0.641191
367	H	0.281361	0.988465	0.607848
368	N	0.218727	0.508025	0.411503
369	O	0.188554	0.503054	0.402552
370	O	0.216227	0.487817	0.442712
371	N	0.221521	0.931869	0.627441
372	H	0.237449	0.928068	0.608699
373	N	0.28139	0.564841	0.376115
374	H	0.265359	0.568712	0.394372
375	C	0.032451	0.770914	0.648055
376	C	0.026038	0.748629	0.351809
377	C	0.492971	0.731099	0.373529
378	C	0.464677	0.735606	0.35832
379	C	0.471523	0.758723	0.655224
380	H	0.046134	0.746112	0.365044
381	C	0.004689	0.776412	0.634577
382	H	0.451878	0.761549	0.641181
383	H	0.007914	0.792184	0.607801
384	N	0.48837	0.709955	0.411413
385	O	0.493322	0.684744	0.402439
386	O	0.508599	0.727654	0.442616
387	N	0.064504	0.78891	0.627345
388	H	0.068308	0.808649	0.608616
389	N	0.431561	0.715843	0.376088
390	H	0.427689	0.695938	0.394346
391	C	0.176222	0.868909	0.62198
392	C	0.139908	0.843269	0.621588
393	C	0.127458	0.806577	0.621904
394	C	0.153108	0.795911	0.621561
395	C	0.1898	0.820154	0.955256
396	C	0.200478	0.856477	0.621545
397	H	0.144678	0.769672	0.624463
398	H	0.226709	0.874273	0.624573
399	H	0.122099	0.851701	0.62451
400	C	0.187307	0.905121	0.628701
401	C	0.214935	0.809079	0.961966
402	C	0.091245	0.781438	0.628584
403	O	0.249128	0.834136	0.635245
404	O	0.162251	0.914251	0.635365
405	O	0.08211	0.747245	0.635199
406	C	0.322526	0.62897	0.709703
407	C	0.35796	0.656827	0.70974
408	C	0.367433	0.692847	0.709726
409	C	0.339572	0.700419	0.70975
410	C	0.303548	0.673875	0.043101
411	C	0.295977	0.63844	0.709766
412	H	0.34589	0.726133	0.706994
413	H	0.270258	0.619047	0.707021
414	H	0.377355	0.650509	0.706931
415	C	0.314411	0.593356	0.70494
416	C	0.276045	0.681982	0.038343
417	C	0.403041	0.720342	0.70491
418	O	0.242654	0.655064	0.698612
419	O	0.341329	0.58688	0.698562
420	O	0.409516	0.753739	0.698572
421	C	0.225468	0.760814	0.981447
422	C	0.247761	0.776694	0.685194
423	C	0.265303	0.761164	0.706908
424	C	0.260797	0.728363	0.691702
425	C	0.237673	0.712085	0.988613
426	H	0.250279	0.799305	0.698426
427	C	0.219975	0.727556	0.967969
428	H	0.234851	0.689615	0.97457
429	H	0.2042	0.715005	0.9412
430	N	0.286453	0.777714	0.744782
431	O	0.311658	0.807877	0.735801
432	O	0.268759	0.780244	0.775991
433	N	0.207468	0.774865	0.960737
434	H	0.187727	0.758924	0.942014
435	N	0.280563	0.715013	0.70947
436	H	0.300472	0.731051	0.727718
437	C	0.235579	0.963924	0.981477
438	C	0.219721	0.970342	0.685244
439	C	0.235256	0.503421	0.706941
440	C	0.26804	0.531718	0.691699
441	C	0.284301	0.524867	0.988593
442	H	0.197122	0.950247	0.698502
443	C	0.268826	0.991691	0.967966
444	H	0.306757	0.544514	0.974527
445	H	0.281361	0.988465	0.94118
446	N	0.218727	0.508025	0.744835
447	O	0.188554	0.503054	0.735887
448	O	0.216227	0.487817	0.776048
449	N	0.221521	0.931869	0.960773
450	H	0.237449	0.928068	0.942031
451	N	0.28139	0.564841	0.709447
452	H	0.265359	0.568712	0.727704
453	C	0.032451	0.770914	0.981387
454	C	0.026038	0.748629	0.685144
455	C	0.492971	0.731099	0.706861
456	C	0.464677	0.735606	0.691652
457	C	0.471523	0.758723	0.988556
458	H	0.046134	0.746112	0.698376
459	C	0.004689	0.776412	0.967909
460	H	0.451878	0.761549	0.974514
461	H	0.007914	0.792184	0.941133
462	N	0.48837	0.709955	0.744745
463	O	0.493322	0.684744	0.735774
464	O	0.508599	0.727654	0.775948
465	N	0.064504	0.78891	0.960677
466	H	0.068308	0.808649	0.941951
467	N	0.431561	0.715843	0.709421
468	H	0.427689	0.695938	0.727678
469	C	0.676222	0.36891	0.955316
470	C	0.639907	0.34327	0.95492
471	C	0.627459	0.306578	0.955239
472	C	0.653107	0.295911	0.954894
473	C	0.689801	0.320154	0.28859
474	C	0.700478	0.356477	0.954877
475	H	0.644677	0.269673	0.957799
476	H	0.726709	0.374271	0.957905
477	H	0.622099	0.351699	0.957845
478	C	0.687309	0.405122	0.962036
479	C	0.714935	0.309079	0.295301
480	C	0.591246	0.281439	0.961917
481	O	0.749128	0.334137	0.968577
482	O	0.662252	0.414252	0.968697
483	O	0.582112	0.247246	0.968531
484	C	0.822526	0.128971	0.043037
485	C	0.85796	0.156827	0.043073
486	C	0.867434	0.192848	0.04306
487	C	0.839571	0.200418	0.043082
488	C	0.803548	0.173874	0.376434
489	C	0.795978	0.138441	0.043099
490	H	0.845892	0.226134	0.040326
491	H	0.77026	0.119048	0.040355
492	H	0.877356	0.15051	0.040264
493	C	0.814411	0.093358	0.038272
494	C	0.776045	0.181982	0.371678
495	C	0.903042	0.220343	0.038242
496	O	0.742655	0.155065	0.031945
497	O	0.841328	0.086881	0.031894
498	O	0.909517	0.253741	0.031904
499	C	0.725468	0.260815	0.314779
500	C	0.747761	0.276694	0.018527
501	C	0.765303	0.261164	0.04024
502	C	0.760797	0.228363	0.025036
503	C	0.737672	0.212084	0.321946
504	H	0.750279	0.299306	0.031758
505	C	0.719976	0.227556	0.301304
506	H	0.734852	0.189616	0.307903
507	H	0.7042	0.215005	0.274532
508	N	0.786452	0.277714	0.078115
509	O	0.811659	0.307877	0.069134
510	O	0.76876	0.280245	0.109325
511	N	0.707467	0.274865	0.294069
512	H	0.687728	0.258925	0.275347
513	N	0.780564	0.215013	0.042804
514	H	0.800472	0.231051	0.061051
515	C	0.73558	0.463925	0.314809
516	C	0.719723	0.470342	0.018578
517	C	0.735256	0.00342	0.040273
518	C	0.76804	0.031718	0.025032
519	C	0.784302	0.024868	0.321926
520	H	0.697123	0.450248	0.031836
521	C	0.768827	0.491692	0.3013
522	H	0.806758	0.044515	0.307859
523	H	0.781361	0.488466	0.274513
524	N	0.718728	0.008026	0.078167
525	O	0.688553	0.003053	0.06922
526	O	0.716226	0.987817	0.109381
527	N	0.72152	0.431869	0.294108
528	H	0.737449	0.428068	0.275366
529	N	0.781389	0.06484	0.042781
530	H	0.765359	0.068712	0.061039
531	C	0.532453	0.270914	0.31472
532	C	0.526038	0.24863	0.018476
533	C	0.992972	0.231099	0.040195
534	C	0.964677	0.235605	0.024985
535	C	0.971522	0.258723	0.321889
536	H	0.546132	0.246111	0.03171
537	C	0.50469	0.276412	0.301243
538	H	0.951878	0.261549	0.307848
539	H	0.507915	0.292184	0.274467
540	N	0.988372	0.209956	0.078078
541	O	0.993322	0.184745	0.069107
542	O	0.008599	0.227654	0.109282
543	N	0.564503	0.288911	0.29401
544	H	0.568308	0.30865	0.275283
545	N	0.931561	0.215843	0.042755
546	H	0.92769	0.195938	0.061011
547	C	0.676222	0.36891	0.288648
548	C	0.639907	0.34327	0.288255
549	C	0.627459	0.306578	0.288571
550	C	0.653107	0.295911	0.288227
551	C	0.689801	0.320154	0.621924
552	C	0.700478	0.356477	0.28821
553	H	0.644677	0.269673	0.29113
554	H	0.726709	0.374271	0.291239
555	H	0.622099	0.351699	0.291177
556	C	0.687309	0.405122	0.295368
557	C	0.714935	0.309079	0.628634
558	C	0.591246	0.281439	0.295251
559	O	0.749128	0.334137	0.301912
560	O	0.662252	0.414252	0.302031
561	O	0.582112	0.247246	0.301864
562	C	0.822526	0.128971	0.376371
563	C	0.85796	0.156827	0.376408
564	C	0.867434	0.192848	0.376394
565	C	0.839571	0.200418	0.376414
566	C	0.803548	0.173874	0.70977
567	C	0.795978	0.138441	0.376431
568	H	0.845892	0.226134	0.373659
569	H	0.77026	0.119048	0.373689
570	H	0.877356	0.15051	0.373599
571	C	0.814411	0.093358	0.371605
572	C	0.776045	0.181982	0.70501
573	C	0.903042	0.220343	0.371575
574	O	0.742655	0.155065	0.36528
575	O	0.841328	0.086881	0.365227
576	O	0.909517	0.253741	0.365236
577	C	0.725468	0.260815	0.648111
578	C	0.747761	0.276694	0.351859
579	C	0.765303	0.261164	0.373572
580	C	0.760797	0.228363	0.35837
581	C	0.737672	0.212084	0.655281
582	H	0.750279	0.299306	0.36509
583	C	0.719976	0.227556	0.634637
584	H	0.734852	0.189616	0.641235
585	H	0.7042	0.215005	0.607864
586	N	0.786452	0.277714	0.411449
587	O	0.811659	0.307877	0.402469
588	O	0.76876	0.280245	0.442659
589	N	0.707467	0.274865	0.627401
590	H	0.687728	0.258925	0.608679
591	N	0.780564	0.215013	0.376138
592	H	0.800472	0.231051	0.394385
593	C	0.73558	0.463925	0.648141
594	C	0.719723	0.470342	0.351912
595	C	0.735256	0.00342	0.373606
596	C	0.76804	0.031718	0.358366
597	C	0.784302	0.024868	0.655261
598	H	0.697123	0.450248	0.36517
599	C	0.768827	0.491692	0.634634
600	H	0.806758	0.044515	0.641191
601	H	0.781361	0.488466	0.607848
602	N	0.718728	0.008026	0.411503
603	O	0.688553	0.003053	0.402552
604	O	0.716226	0.987817	0.442712
605	N	0.72152	0.431869	0.627441
606	H	0.737449	0.428068	0.608699
607	N	0.781389	0.06484	0.376115
608	H	0.765359	0.068712	0.394372
609	C	0.532453	0.270914	0.648055
610	C	0.526038	0.24863	0.351809
611	C	0.992972	0.231099	0.373529
612	C	0.964677	0.235605	0.35832
613	C	0.971522	0.258723	0.655224
614	H	0.546132	0.246111	0.365044
615	C	0.50469	0.276412	0.634577
616	H	0.951878	0.261549	0.641181
617	H	0.507915	0.292184	0.607801
618	N	0.988372	0.209956	0.411413
619	O	0.993322	0.184745	0.402439
620	O	0.008599	0.227654	0.442616
621	N	0.564503	0.288911	0.627345
622	H	0.568308	0.30865	0.608616
623	N	0.931561	0.215843	0.376088
624	H	0.92769	0.195938	0.394346
625	C	0.676222	0.36891	0.62198
626	C	0.639907	0.34327	0.621588
627	C	0.627459	0.306578	0.621904
628	C	0.653107	0.295911	0.621561
629	C	0.689801	0.320154	0.955256
630	C	0.700478	0.356477	0.621545
631	H	0.644677	0.269673	0.624463
632	H	0.726709	0.374271	0.624573
633	H	0.622099	0.351699	0.62451
634	C	0.687309	0.405122	0.628701
635	C	0.714935	0.309079	0.961966
636	C	0.591246	0.281439	0.628584
637	O	0.749128	0.334137	0.635245
638	O	0.662252	0.414252	0.635365
639	O	0.582112	0.247246	0.635199
640	C	0.822526	0.128971	0.709703
641	C	0.85796	0.156827	0.70974
642	C	0.867434	0.192848	0.709726
643	C	0.839571	0.200418	0.70975
644	C	0.803548	0.173874	0.043101
645	C	0.795978	0.138441	0.709766
646	H	0.845892	0.226134	0.706994
647	H	0.77026	0.119048	0.707021
648	H	0.877356	0.15051	0.706931
649	C	0.814411	0.093358	0.70494
650	C	0.776045	0.181982	0.038343
651	C	0.903042	0.220343	0.70491
652	O	0.742655	0.155065	0.698612
653	O	0.841328	0.086881	0.698562
654	O	0.909517	0.253741	0.698572
655	C	0.725468	0.260815	0.981447
656	C	0.747761	0.276694	0.685194
657	C	0.765303	0.261164	0.706908
658	C	0.760797	0.228363	0.691702
659	C	0.737672	0.212084	0.988613
660	H	0.750279	0.299306	0.698426
661	C	0.719976	0.227556	0.967969
662	H	0.734852	0.189616	0.97457
663	H	0.7042	0.215005	0.9412
664	N	0.786452	0.277714	0.744782
665	O	0.811659	0.307877	0.735801
666	O	0.76876	0.280245	0.775991
667	N	0.707467	0.274865	0.960737
668	H	0.687728	0.258925	0.942014
669	N	0.780564	0.215013	0.70947
670	H	0.800472	0.231051	0.727718
671	C	0.73558	0.463925	0.981477
672	C	0.719723	0.470342	0.685244
673	C	0.735256	0.00342	0.706941
674	C	0.76804	0.031718	0.691699
675	C	0.784302	0.024868	0.988593
676	H	0.697123	0.450248	0.698502
677	C	0.768827	0.491692	0.967966
678	H	0.806758	0.044515	0.974527
679	H	0.781361	0.488466	0.94118
680	N	0.718728	0.008026	0.744835
681	O	0.688553	0.003053	0.735887
682	O	0.716226	0.987817	0.776048
683	N	0.72152	0.431869	0.960773
684	H	0.737449	0.428068	0.942031
685	N	0.781389	0.06484	0.709447
686	H	0.765359	0.068712	0.727708
687	C	0.532453	0.270914	0.981387
688	C	0.526038	0.24863	0.685144
689	C	0.992972	0.231099	0.706861
690	C	0.964677	0.235605	0.691652
691	C	0.971522	0.258723	0.988556
692	H	0.546132	0.246111	0.698376
693	C	0.50469	0.276412	0.967909
694	H	0.951878	0.261549	0.974514
695	H	0.507915	0.292184	0.941133
696	N	0.988372	0.209956	0.744745
697	O	0.993322	0.184745	0.735774
698	O	0.008599	0.227654	0.775948
699	N	0.564503	0.288911	0.960677
700	H	0.568308	0.30865	0.941951
701	N	0.931561	0.215843	0.709421
702	H	0.92769	0.195938	0.727678
703	C	0.676222	0.868909	0.955316
704	C	0.639907	0.843269	0.95492
705	C	0.627458	0.806577	0.955239
706	C	0.653108	0.795911	0.954894
707	C	0.6898	0.820154	0.28859
708	C	0.700479	0.856477	0.954877
709	H	0.644678	0.769672	0.957799
710	H	0.726709	0.874273	0.957905
711	H	0.6221	0.851701	0.957845
712	C	0.687307	0.905121	0.962036
713	C	0.714936	0.809079	0.295301
714	C	0.591246	0.781438	0.961917
715	O	0.749129	0.834136	0.968577
716	O	0.662252	0.914251	0.968697
717	O	0.582111	0.747245	0.968531
718	C	0.822527	0.62897	0.043037
719	C	0.857959	0.656827	0.043073
720	C	0.867432	0.692847	0.04306
721	C	0.839573	0.700419	0.043082
722	C	0.80355	0.673875	0.376434
723	C	0.795976	0.63844	0.043099
724	H	0.84589	0.726133	0.040326
725	H	0.770258	0.619047	0.040355
726	H	0.877355	0.650509	0.040264
727	C	0.814412	0.593356	0.038272
728	C	0.776044	0.681982	0.371678
729	C	0.903041	0.720342	0.038242
730	O	0.742654	0.655064	0.031945
731	O	0.841329	0.58688	0.031894
732	O	0.909518	0.753739	0.031904
733	C	0.725469	0.760814	0.314779
734	C	0.747762	0.776694	0.018527
735	C	0.765302	0.761164	0.04024
736	C	0.760796	0.728363	0.025036
737	C	0.737674	0.712085	0.321946
738	H	0.75028	0.799305	0.031758
739	C	0.719975	0.727556	0.301304
740	H	0.73485	0.689615	0.307903
741	H	0.704201	0.715005	0.274532
742	N	0.786453	0.777714	0.078115
743	O	0.811658	0.807877	0.069134
744	O	0.768759	0.780244	0.109325
745	N	0.707468	0.774865	0.294069
746	H	0.687729	0.758924	0.275347
747	N	0.780562	0.715013	0.042804
748	H	0.800472	0.731051	0.061051
749	C	0.735579	0.963924	0.314809
750	C	0.719721	0.970342	0.018578
751	C	0.735255	0.503421	0.040273
752	C	0.768041	0.531718	0.025031
753	C	0.784301	0.524867	0.321926
754	H	0.697123	0.950247	0.031836
755	C	0.768826	0.991691	0.3013
756	H	0.806756	0.544514	0.307859
757	H	0.781362	0.988465	0.274513
758	N	0.718726	0.508025	0.078167
759	O	0.688555	0.503054	0.06922
760	O	0.716228	0.487817	0.109381
761	N	0.721521	0.931869	0.294108
762	H	0.73745	0.928068	0.275366
763	N	0.781391	0.564841	0.042781
764	H	0.765358	0.568712	0.061039
765	C	0.532452	0.770914	0.31472
766	C	0.526038	0.748629	0.018476
767	C	0.992971	0.731099	0.040195
768	C	0.964676	0.735606	0.024985
769	C	0.971524	0.758723	0.321889
770	H	0.546133	0.746112	0.03171
771	C	0.50469	0.776412	0.301243
772	H	0.951877	0.761549	0.307848
773	H	0.507915	0.792184	0.274467
774	N	0.98837	0.709955	0.078078
775	O	0.993322	0.684744	0.069107
776	O	0.008598	0.727654	0.109282
777	N	0.564503	0.78891	0.29401
778	H	0.568308	0.808649	0.275283
779	N	0.93156	0.715843	0.042755
780	H	0.927689	0.695938	0.061011
781	C	0.676222	0.868909	0.288648
782	C	0.639907	0.843269	0.288255
783	C	0.627458	0.806577	0.288571
784	C	0.653108	0.795911	0.288227
785	C	0.6898	0.820154	0.621924
786	C	0.700479	0.856477	0.28821
787	H	0.644678	0.769672	0.29113
788	H	0.726709	0.874273	0.291239
789	H	0.6221	0.851701	0.291177
790	C	0.687307	0.905121	0.295368
791	C	0.714936	0.809079	0.628634
792	C	0.591246	0.781438	0.295251
793	O	0.749129	0.834136	0.301912
794	O	0.662252	0.914251	0.302031
795	O	0.582111	0.747245	0.301864
796	C	0.822527	0.62897	0.376371
797	C	0.857959	0.656827	0.376408
798	C	0.867432	0.692847	0.376394
799	C	0.839573	0.700419	0.376414
800	C	0.80355	0.673875	0.70977
801	C	0.795976	0.63844	0.376431
802	H	0.84589	0.726133	0.373659
803	H	0.770258	0.619047	0.373689
804	H	0.877355	0.650509	0.373599
805	C	0.814412	0.593356	0.371605
806	C	0.776044	0.681982	0.70501
807	C	0.903041	0.720342	0.371575
808	O	0.742654	0.655064	0.36528
809	O	0.841329	0.58688	0.365227
810	O	0.909518	0.753739	0.365236
811	C	0.725469	0.760814	0.648111
812	C	0.747762	0.776694	0.351859
813	C	0.765302	0.761164	0.373572
814	C	0.760796	0.728363	0.35837
815	C	0.737674	0.712085	0.655281
816	H	0.75028	0.799305	0.36509
817	C	0.719975	0.727556	0.634637
818	H	0.73485	0.689615	0.641235
819	H	0.704201	0.715005	0.607864
820	N	0.786453	0.777714	0.411449
821	O	0.811658	0.807877	0.402469
822	O	0.768759	0.780244	0.442659
823	N	0.707468	0.774865	0.627401
824	H	0.687729	0.758924	0.608679
825	N	0.780562	0.715013	0.376138
826	H	0.800472	0.731051	0.394385
827	C	0.735579	0.963924	0.648141
828	C	0.719721	0.970342	0.351912
829	C	0.735255	0.503421	0.373606
830	C	0.768041	0.531718	0.358366
831	C	0.784301	0.524867	0.655261
832	H	0.697123	0.950247	0.36517
833	C	0.768826	0.991691	0.634634
834	H	0.806756	0.544514	0.641191
835	H	0.781362	0.988465	0.607848
836	N	0.718726	0.508025	0.411503
837	O	0.688555	0.503054	0.402552
838	O	0.716228	0.487817	0.442712
839	N	0.721521	0.931869	0.627441
840	H	0.73745	0.928068	0.608699
841	N	0.781391	0.564841	0.376115
842	H	0.765358	0.568712	0.394372
843	C	0.532452	0.770914	0.648055
844	C	0.526038	0.748629	0.351809
845	C	0.992971	0.731099	0.373529
846	C	0.964676	0.735606	0.35832
847	C	0.971524	0.758723	0.655224
848	H	0.546133	0.746112	0.365044
849	C	0.50469	0.776412	0.634577
850	H	0.951877	0.761549	0.641181
851	H	0.507915	0.792184	0.607801
852	N	0.98837	0.709955	0.411413
853	O	0.993322	0.684744	0.402439
854	O	0.008598	0.727654	0.442616
855	N	0.564503	0.78891	0.627345
856	H	0.568308	0.808649	0.608616
857	N	0.93156	0.715843	0.376088
858	H	0.927689	0.695938	0.394346
859	C	0.676222	0.868909	0.62198
860	C	0.639907	0.843269	0.621588
861	C	0.627458	0.806577	0.621904
862	C	0.653108	0.795911	0.621561
863	C	0.6898	0.820154	0.955256
864	C	0.700479	0.856477	0.621545
865	H	0.644678	0.769672	0.624463
866	H	0.726709	0.874273	0.624573
867	H	0.6221	0.851701	0.62451
868	C	0.687307	0.905121	0.628701
869	C	0.714936	0.809079	0.961966
870	C	0.591246	0.781438	0.628584
871	O	0.749129	0.834136	0.635245
872	O	0.662252	0.914251	0.635365
873	O	0.582111	0.747245	0.635199
874	C	0.822527	0.62897	0.709703
875	C	0.857959	0.656827	0.70974
876	C	0.867432	0.692847	0.709726
877	C	0.839573	0.700419	0.70975
878	C	0.80355	0.673875	0.043101
879	C	0.795976	0.63844	0.709766
880	H	0.84589	0.726133	0.706994
881	H	0.770258	0.619047	0.707021
882	H	0.877355	0.650509	0.706931
883	C	0.814412	0.593356	0.70494
884	C	0.776044	0.681982	0.038343
885	C	0.903041	0.720342	0.70491
886	O	0.742654	0.655064	0.698612
887	O	0.841329	0.58688	0.698562
888	O	0.909518	0.753739	0.698572
889	C	0.725469	0.760814	0.981447
890	C	0.747762	0.776694	0.685194
891	C	0.765302	0.761164	0.706908
892	C	0.760796	0.728363	0.691702
893	C	0.737674	0.712085	0.988613
894	H	0.75028	0.799305	0.698426
895	C	0.719975	0.727556	0.967969
896	H	0.73485	0.689615	0.97457
897	H	0.704201	0.715005	0.9412
898	N	0.786453	0.777714	0.744782
899	O	0.811658	0.807877	0.735801
900	O	0.768759	0.780244	0.775991
901	N	0.707468	0.774865	0.960737
902	H	0.687729	0.758924	0.942014
903	N	0.780562	0.715013	0.70947
904	H	0.800472	0.731051	0.727718
905	C	0.735579	0.963924	0.981477
906	C	0.719721	0.970342	0.685244
907	C	0.735255	0.503421	0.706941
908	C	0.768041	0.531718	0.691699
909	C	0.784301	0.524867	0.988593
910	H	0.697123	0.950247	0.698502
911	C	0.768826	0.991691	0.967966
912	H	0.806756	0.544514	0.974527
913	H	0.781362	0.988465	0.94118
914	N	0.718726	0.508025	0.744835
915	O	0.688555	0.503054	0.735887
916	O	0.716228	0.487817	0.776048
917	N	0.721521	0.931869	0.960773
918	H	0.73745	0.928068	0.942031
919	N	0.781391	0.564841	0.709447
920	H	0.765358	0.568712	0.727704
921	C	0.532452	0.770914	0.981387
922	C	0.526038	0.748629	0.685144
923	C	0.992971	0.731099	0.706861
924	C	0.964676	0.735606	0.691652
925	C	0.971524	0.758723	0.988556
926	H	0.546133	0.746112	0.698376
927	C	0.50469	0.776412	0.967909
928	H	0.951877	0.761549	0.974514
929	H	0.507915	0.792184	0.941133
930	N	0.98837	0.709955	0.744745
931	O	0.993322	0.684744	0.735774
932	O	0.008598	0.727654	0.775948
933	N	0.564503	0.78891	0.960677
934	H	0.568308	0.808649	0.941951
935	N	0.93156	0.715843	0.709421
936	H	0.927689	0.695938	0.727678
