data_C720H432N216_2018-02-15_10:35:57
#******************************************
#
# CIF file created by Zeo++
# Zeo++ is an open source package to
# analyze microporous materials
#
#*******************************************

_cell_length_a		46.1802   
_cell_length_b		46.1803   
_cell_length_c		29.5202   
_cell_angle_alpha		90   
_cell_angle_beta		90   
_cell_angle_gamma		120   

_symmetry_space_group_name_H-M		'P1'
_symmetry_Int_Tables_number		1
_symmetry_cell_setting		Monoclinic

loop_
_symmetry_equiv_pos_as_xyz
'+x,+y,+z'

loop_
_atom_site_label
_atom_site_type_symbol
_atom_site_fract_x
_atom_site_fract_y
_atom_site_fract_z
1	C	0.030462	0.267217	0.345238
2	C	0.049776	0.250957	0.015949
3	C	0.084474	0.267702	0.025973
4	C	0.101919	0.303353	0.030678
5	C	0.085016	0.321379	0.353409
6	C	0.050228	0.302938	0.343731
7	N	0.134995	0.319866	0.042534
8	H	0.039118	0.316736	0.336786
9	H	0.145276	0.308659	0.057205
10	H	0.149289	0.34371	0.373815
11	H	0.038362	0.225565	0.014139
12	H	0.17649	0.309957	0.327358
13	H	0.176108	0.373608	0.965552
14	C	0.119814	0.246205	0.058008
15	N	0.149954	0.248209	0.051184
16	C	0.163257	0.249343	0.00957
17	N	0.145268	0.250705	0.307123
18	C	0.115277	0.249482	0.311174
19	C	0.102359	0.250032	0.354517
20	H	0.113821	0.248885	0.090479
21	H	0.105797	0.25437	0.282737
22	C	0.150584	0.406293	0.045897
23	N	0.12242	0.376001	0.051483
24	C	0.102607	0.356912	0.016726
25	N	0.112897	0.369719	0.307726
26	C	0.140561	0.400017	0.299494
27	C	0.162948	0.418075	0.335161
28	H	0.1656	0.416475	0.073631
29	H	0.148221	0.405663	0.266578
30	C	0.030462	0.267217	0.678569
31	C	0.049776	0.250957	0.349283
32	C	0.084474	0.267702	0.359306
33	C	0.101919	0.303353	0.364012
34	C	0.085016	0.321379	0.686743
35	C	0.050228	0.302938	0.677065
36	N	0.134995	0.319866	0.375868
37	H	0.039118	0.316736	0.670121
38	H	0.145276	0.308659	0.390539
39	H	0.149289	0.34371	0.707146
40	H	0.038362	0.225565	0.347474
41	H	0.17649	0.309957	0.66069
42	H	0.176108	0.373608	0.298887
43	C	0.119814	0.246205	0.391342
44	N	0.149954	0.248209	0.384516
45	C	0.163257	0.249343	0.342904
46	N	0.145268	0.250705	0.640456
47	C	0.115277	0.249482	0.644508
48	C	0.102359	0.250032	0.687851
49	H	0.113821	0.248885	0.423811
50	H	0.105797	0.25437	0.61607
51	C	0.150584	0.406293	0.379232
52	N	0.12242	0.376001	0.384814
53	C	0.102607	0.356912	0.350059
54	N	0.112897	0.369719	0.641059
55	C	0.140561	0.400017	0.632828
56	C	0.162948	0.418075	0.668495
57	H	0.1656	0.416475	0.406965
58	H	0.148221	0.405663	0.599911
59	C	0.030462	0.267217	0.011904
60	C	0.049776	0.250957	0.682617
61	C	0.084474	0.267702	0.692641
62	C	0.101919	0.303353	0.697346
63	C	0.085016	0.321379	0.020075
64	C	0.050228	0.302938	0.010398
65	N	0.134995	0.319866	0.709202
66	H	0.039118	0.316736	0.003452
67	H	0.145276	0.308659	0.72387
68	H	0.149289	0.34371	0.04048
69	H	0.038362	0.225565	0.680805
70	H	0.17649	0.309957	0.994024
71	H	0.176108	0.373608	0.632221
72	C	0.119814	0.246205	0.724673
73	N	0.149954	0.248209	0.717851
74	C	0.163257	0.249343	0.676239
75	N	0.145268	0.250705	0.973791
76	C	0.115277	0.249482	0.977842
77	C	0.102359	0.250032	0.021184
78	H	0.113821	0.248885	0.757146
79	H	0.105797	0.25437	0.949404
80	C	0.150584	0.406293	0.712563
81	N	0.12242	0.376001	0.718149
82	C	0.102607	0.356912	0.683393
83	N	0.112897	0.369719	0.974394
84	C	0.140561	0.400017	0.966159
85	C	0.162948	0.418075	0.001829
86	H	0.1656	0.416475	0.740296
87	H	0.148221	0.405663	0.933246
88	C	0.030461	0.767216	0.345238
89	C	0.049776	0.750956	0.015949
90	C	0.084475	0.767704	0.025973
91	C	0.101918	0.803352	0.030678
92	C	0.085015	0.821378	0.353409
93	C	0.050227	0.802937	0.343731
94	N	0.134994	0.819865	0.042534
95	H	0.039118	0.816734	0.336786
96	H	0.145276	0.808661	0.057205
97	H	0.149287	0.843709	0.373812
98	H	0.038362	0.725564	0.014139
99	H	0.176488	0.809956	0.327357
100	H	0.176107	0.873606	0.965552
101	C	0.119814	0.746205	0.058008
102	N	0.149954	0.748208	0.051184
103	C	0.163257	0.749343	0.00957
104	N	0.145267	0.750706	0.307123
105	C	0.115276	0.749481	0.311174
106	C	0.102357	0.750031	0.354517
107	H	0.11382	0.748886	0.090479
108	H	0.105795	0.754369	0.282737
109	C	0.150583	0.906292	0.045898
110	N	0.122419	0.875999	0.051483
111	C	0.102606	0.856911	0.016726
112	N	0.112896	0.869718	0.307726
113	C	0.140559	0.900016	0.299494
114	C	0.162948	0.918076	0.335162
115	H	0.165601	0.916474	0.073632
116	H	0.148221	0.905664	0.266578
117	C	0.030461	0.767216	0.678573
118	C	0.049776	0.750956	0.349283
119	C	0.084475	0.767704	0.359306
120	C	0.101918	0.803352	0.364012
121	C	0.085015	0.821378	0.686743
122	C	0.050227	0.802937	0.677065
123	N	0.134994	0.819865	0.375868
124	H	0.039118	0.816734	0.670121
125	H	0.145276	0.808661	0.390539
126	H	0.149287	0.843709	0.707146
127	H	0.038362	0.725564	0.347474
128	H	0.176488	0.809956	0.66069
129	H	0.176107	0.873606	0.298887
130	C	0.119814	0.746205	0.391342
131	N	0.149954	0.748208	0.384516
132	C	0.163257	0.749343	0.342904
133	N	0.145267	0.750706	0.640456
134	C	0.115276	0.749481	0.644508
135	C	0.102357	0.750031	0.687851
136	H	0.11382	0.748886	0.423811
137	H	0.105795	0.754369	0.61607
138	C	0.150583	0.906292	0.379232
139	N	0.122419	0.875999	0.384818
140	C	0.102606	0.856911	0.350059
141	N	0.112896	0.869718	0.641059
142	C	0.140559	0.900016	0.632828
143	C	0.162948	0.918076	0.668495
144	H	0.165601	0.916474	0.406965
145	H	0.148221	0.905664	0.599911
146	C	0.030461	0.767216	0.011904
147	C	0.049776	0.750956	0.682617
148	C	0.084475	0.767704	0.692641
149	C	0.101918	0.803352	0.697346
150	C	0.085015	0.821378	0.020075
151	C	0.050227	0.802937	0.010399
152	N	0.134994	0.819865	0.709202
153	H	0.039118	0.816734	0.003452
154	H	0.145276	0.808661	0.72387
155	H	0.149287	0.843709	0.04048
156	H	0.038362	0.725564	0.680805
157	H	0.176488	0.809956	0.994024
158	H	0.176107	0.873606	0.632221
159	C	0.119814	0.746205	0.724673
160	N	0.149954	0.748208	0.717851
161	C	0.163257	0.749343	0.676239
162	N	0.145267	0.750706	0.973791
163	C	0.115276	0.749481	0.977842
164	C	0.102357	0.750031	0.021184
165	H	0.11382	0.748886	0.757146
166	H	0.105795	0.754369	0.949404
167	C	0.150583	0.906292	0.712563
168	N	0.122419	0.875999	0.718149
169	C	0.102606	0.856911	0.683393
170	N	0.112896	0.869718	0.974394
171	C	0.140559	0.900016	0.966162
172	C	0.162948	0.918076	0.001829
173	H	0.165601	0.916474	0.7403
174	H	0.148221	0.905664	0.933246
175	C	0.271416	0.249129	0.343151
176	C	0.272347	0.194987	0.010649
177	C	0.255287	0.21336	0.009664
178	C	0.25308	0.267185	0.342955
179	C	0.269186	0.302951	0.009212
180	C	0.252078	0.321286	0.009464
181	C	0.21643	0.303283	0.00645
182	C	0.198728	0.267585	0.339628
183	C	0.217289	0.250807	0.342989
184	N	0.199344	0.320256	0.003821
185	H	0.203358	0.225441	0.344611
186	H	0.209559	0.343725	0.009974
187	H	0.229905	0.199273	0.009405
188	H	0.294569	0.317053	0.009256
189	C	0.271344	0.026359	0.338934
190	C	0.255402	0.046	0.335521
191	C	0.272358	0.080434	0.324014
192	H	0.230102	0.034964	0.338621
193	C	0.25284	0.490005	0.338914
194	C	0.217106	0.470534	0.006751
195	C	0.198407	0.435976	0.995684
196	C	0.216317	0.419223	0.983577
197	C	0.251742	0.435943	0.323632
198	C	0.268756	0.470351	0.33526
199	N	0.20003	0.387115	0.967666
200	H	0.294052	0.481346	0.338396
201	H	0.21181	0.378101	0.284583
202	H	0.203498	0.481716	0.014506
203	C	0.268803	0.375655	0.044445
204	N	0.266167	0.403423	0.037391
205	C	0.268415	0.417285	0.995867
206	N	0.271523	0.400312	0.29352
207	C	0.27398	0.372242	0.297849
208	C	0.270358	0.356942	0.340699
209	H	0.263041	0.365264	0.076084
210	H	0.272446	0.359448	0.268835
211	C	0.255377	0.140445	0.045466
212	N	0.25789	0.112629	0.038198
213	C	0.255604	0.099008	0.996507
214	N	0.252575	0.116051	0.294209
215	C	0.25029	0.144203	0.298806
216	C	0.254017	0.159326	0.341817
217	H	0.261167	0.150749	0.077152
218	H	0.251875	0.157132	0.269907
219	C	0.271416	0.249129	0.676486
220	C	0.272347	0.194987	0.343981
221	C	0.255287	0.21336	0.342999
222	C	0.25308	0.267185	0.676286
223	C	0.269186	0.302951	0.342545
224	C	0.252078	0.321286	0.342796
225	C	0.21643	0.303283	0.339784
226	C	0.198728	0.267585	0.672959
227	C	0.217289	0.250807	0.67632
228	N	0.199344	0.320256	0.337154
229	H	0.203358	0.225441	0.677946
230	H	0.209559	0.343725	0.343307
231	H	0.229905	0.199273	0.342738
232	H	0.294569	0.317053	0.342589
233	C	0.271344	0.026359	0.672268
234	C	0.255402	0.046	0.668854
235	C	0.272358	0.080434	0.657346
236	H	0.230102	0.034964	0.671953
237	C	0.25284	0.490005	0.672245
238	C	0.217106	0.470534	0.340086
239	C	0.198407	0.435976	0.329019
240	C	0.216317	0.419223	0.316911
241	C	0.251742	0.435943	0.656964
242	C	0.268756	0.470351	0.668593
243	N	0.20003	0.387115	0.301
244	H	0.294052	0.481346	0.67173
245	H	0.21181	0.378101	0.617916
246	H	0.203498	0.481716	0.34784
247	C	0.268803	0.375655	0.377779
248	N	0.266167	0.403423	0.370726
249	C	0.268415	0.417285	0.329201
250	N	0.271523	0.400312	0.626855
251	C	0.27398	0.372242	0.631181
252	C	0.270358	0.356942	0.674033
253	H	0.263041	0.365264	0.409418
254	H	0.272446	0.359448	0.602167
255	C	0.255377	0.140445	0.378798
256	N	0.25789	0.112629	0.371532
257	C	0.255604	0.099008	0.329841
258	N	0.252575	0.116051	0.627543
259	C	0.25029	0.144203	0.63214
260	C	0.254017	0.159326	0.675151
261	H	0.261167	0.150749	0.410485
262	H	0.251875	0.157132	0.603241
263	C	0.271416	0.249129	0.009819
264	C	0.272347	0.194987	0.677316
265	C	0.255287	0.21336	0.67633
266	C	0.25308	0.267185	0.00962
267	C	0.269186	0.302951	0.675879
268	C	0.252078	0.321286	0.67613
269	C	0.21643	0.303283	0.673119
270	C	0.198728	0.267585	0.006294
271	C	0.217289	0.250807	0.009654
272	N	0.199344	0.320256	0.670487
273	H	0.203358	0.225441	0.011278
274	H	0.209559	0.343725	0.676642
275	H	0.229905	0.199273	0.676073
276	H	0.294569	0.317053	0.675923
277	C	0.271344	0.026359	0.005599
278	C	0.255402	0.046	0.002188
279	C	0.272358	0.080434	0.990681
280	H	0.230102	0.034964	0.005288
281	C	0.25284	0.490005	0.005579
282	C	0.217106	0.470534	0.67342
283	C	0.198407	0.435976	0.662353
284	C	0.216317	0.419223	0.650243
285	C	0.251742	0.435943	0.990298
286	C	0.268756	0.470351	0.001927
287	N	0.20003	0.387115	0.634332
288	H	0.294052	0.481346	0.005064
289	H	0.21181	0.378101	0.95125
290	H	0.203498	0.481716	0.681174
291	C	0.268803	0.375655	0.711113
292	N	0.266167	0.403423	0.704057
293	C	0.268415	0.417285	0.662533
294	N	0.271523	0.400312	0.960186
295	C	0.27398	0.372242	0.964516
296	C	0.270358	0.356942	0.007368
297	H	0.263041	0.365264	0.742752
298	H	0.272446	0.359448	0.935502
299	C	0.255377	0.140445	0.712133
300	N	0.25789	0.112629	0.704863
301	C	0.255604	0.099008	0.663173
302	N	0.252575	0.116051	0.960874
303	C	0.25029	0.144203	0.965474
304	C	0.254017	0.159326	0.008484
305	H	0.261167	0.150749	0.743819
306	H	0.251875	0.157132	0.936572
307	C	0.271415	0.749128	0.343151
308	C	0.272347	0.694986	0.010649
309	C	0.255287	0.71336	0.009664
310	C	0.253079	0.767184	0.342955
311	C	0.269186	0.802952	0.009213
312	C	0.252077	0.821285	0.009464
313	C	0.21643	0.803282	0.00645
314	C	0.198727	0.767584	0.339628
315	C	0.217289	0.750806	0.342989
316	N	0.199343	0.820255	0.003821
317	H	0.203357	0.725439	0.344611
318	H	0.209559	0.843726	0.009974
319	H	0.229905	0.699272	0.009405
320	H	0.294568	0.817052	0.009256
321	C	0.271345	0.526358	0.338934
322	C	0.255403	0.545999	0.335521
323	C	0.272358	0.580435	0.324014
324	H	0.230102	0.534965	0.338621
325	C	0.252841	0.990006	0.338914
326	C	0.217105	0.970535	0.006751
327	C	0.198408	0.935977	0.995688
328	C	0.216316	0.919222	0.983577
329	C	0.251743	0.935944	0.323632
330	C	0.268755	0.97035	0.33526
331	N	0.200032	0.887116	0.967666
332	H	0.294052	0.981347	0.338396
333	H	0.21181	0.8781	0.284583
334	H	0.203498	0.981715	0.014506
335	C	0.268802	0.875654	0.044445
336	N	0.266166	0.903421	0.037391
337	C	0.268415	0.917284	0.995867
338	N	0.271524	0.900313	0.293521
339	C	0.27398	0.872241	0.29785
340	C	0.270357	0.856941	0.340699
341	H	0.26304	0.865263	0.076084
342	H	0.272445	0.859447	0.268836
343	C	0.255377	0.640445	0.045465
344	N	0.257891	0.61263	0.038198
345	C	0.255604	0.599008	0.996507
346	N	0.252575	0.616051	0.294209
347	C	0.25029	0.644203	0.298806
348	C	0.254016	0.659326	0.341817
349	H	0.261167	0.650749	0.077152
350	H	0.251874	0.65713	0.269907
351	C	0.271415	0.749128	0.676486
352	C	0.272347	0.694986	0.343981
353	C	0.255287	0.71336	0.342999
354	C	0.253079	0.767184	0.676286
355	C	0.269186	0.802952	0.342545
356	C	0.252077	0.821285	0.342799
357	C	0.21643	0.803282	0.339784
358	C	0.198727	0.767584	0.672959
359	C	0.217289	0.750806	0.67632
360	N	0.199343	0.820255	0.337154
361	H	0.203357	0.725439	0.677946
362	H	0.209559	0.843726	0.343307
363	H	0.229905	0.699272	0.342738
364	H	0.294568	0.817052	0.342589
365	C	0.271345	0.526358	0.672268
366	C	0.255403	0.545999	0.668854
367	C	0.272358	0.580435	0.657346
368	H	0.230102	0.534965	0.671953
369	C	0.252841	0.990006	0.672245
370	C	0.217105	0.970535	0.340086
371	C	0.198408	0.935977	0.329019
372	C	0.216316	0.919222	0.316911
373	C	0.251743	0.935944	0.656964
374	C	0.268755	0.97035	0.668593
375	N	0.200032	0.887116	0.301
376	H	0.294052	0.981347	0.67173
377	H	0.21181	0.8781	0.617916
378	H	0.203498	0.981715	0.34784
379	C	0.268802	0.875654	0.377779
380	N	0.266166	0.903421	0.370726
381	C	0.268415	0.917284	0.329201
382	N	0.271524	0.900313	0.626855
383	C	0.27398	0.872241	0.631185
384	C	0.270357	0.856941	0.674033
385	H	0.26304	0.865263	0.409418
386	H	0.272445	0.859447	0.602171
387	C	0.255377	0.640445	0.378798
388	N	0.257891	0.61263	0.371532
389	C	0.255604	0.599008	0.329841
390	N	0.252575	0.616051	0.627543
391	C	0.25029	0.644203	0.63214
392	C	0.254016	0.659326	0.675151
393	H	0.261167	0.650749	0.410485
394	H	0.251874	0.65713	0.603241
395	C	0.271415	0.749128	0.009819
396	C	0.272347	0.694986	0.677316
397	C	0.255287	0.71336	0.67633
398	C	0.253079	0.767184	0.009621
399	C	0.269186	0.802952	0.675879
400	C	0.252077	0.821285	0.67613
401	C	0.21643	0.803282	0.673119
402	C	0.198727	0.767584	0.006294
403	C	0.217289	0.750806	0.009654
404	N	0.199343	0.820255	0.670487
405	H	0.203357	0.725439	0.011278
406	H	0.209559	0.843726	0.676642
407	H	0.229905	0.699272	0.676073
408	H	0.294568	0.817052	0.675923
409	C	0.271345	0.526358	0.005599
410	C	0.255403	0.545999	0.002188
411	C	0.272358	0.580435	0.990681
412	H	0.230102	0.534965	0.005288
413	C	0.252841	0.990006	0.005579
414	C	0.217105	0.970535	0.67342
415	C	0.198408	0.935977	0.662353
416	C	0.216316	0.919222	0.650243
417	C	0.251743	0.935944	0.990298
418	C	0.268755	0.97035	0.001927
419	N	0.200032	0.887116	0.634335
420	H	0.294052	0.981347	0.005064
421	H	0.21181	0.8781	0.95125
422	H	0.203498	0.981715	0.681174
423	C	0.268802	0.875654	0.711113
424	N	0.266166	0.903421	0.704057
425	C	0.268415	0.917284	0.662536
426	N	0.271524	0.900313	0.960186
427	C	0.27398	0.872241	0.964516
428	C	0.270357	0.856941	0.007368
429	H	0.26304	0.865263	0.742752
430	H	0.272445	0.859447	0.935502
431	C	0.255377	0.640445	0.712133
432	N	0.257891	0.61263	0.704863
433	C	0.255604	0.599008	0.663173
434	N	0.252575	0.616051	0.960874
435	C	0.25029	0.644203	0.965474
436	C	0.254016	0.659326	0.008484
437	H	0.261167	0.650749	0.743819
438	H	0.251874	0.65713	0.936572
439	H	0.379757	0.207516	0.058745
440	H	0.375606	0.172353	0.375651
441	C	0.307205	0.265487	0.343199
442	C	0.325741	0.248649	0.340519
443	C	0.308007	0.212952	0.007977
444	H	0.321148	0.290869	0.34433
445	N	0.325089	0.195949	0.006091
446	H	0.314888	0.172544	0.012736
447	H	0.34796	0.206177	0.329746
448	C	0.307795	0.09723	0.983984
449	C	0.325743	0.080418	0.995596
450	C	0.307082	0.045826	0.006477
451	N	0.324069	0.129514	0.968726
452	H	0.348003	0.143232	0.96731
453	H	0.31236	0.138793	0.286095
454	H	0.320716	0.034618	0.0139
455	N	0.3747	0.268077	0.051713
456	C	0.361227	0.26687	0.0102
457	N	0.37899	0.265237	0.307651
458	C	0.374243	0.109611	0.045083
459	C	0.38328	0.116603	0.298629
460	C	0.361249	0.0982	0.334476
461	H	0.359571	0.099202	0.07305
462	H	0.375255	0.111276	0.265813
463	H	0.379757	0.207516	0.392077
464	H	0.375606	0.172353	0.708982
465	C	0.307205	0.265487	0.67653
466	C	0.325741	0.248649	0.673854
467	C	0.308007	0.212952	0.341309
468	H	0.321148	0.290869	0.677665
469	N	0.325089	0.195949	0.339422
470	H	0.314888	0.172544	0.346068
471	H	0.34796	0.206177	0.663078
472	C	0.307795	0.09723	0.317318
473	C	0.325743	0.080418	0.32893
474	C	0.307082	0.045826	0.339811
475	N	0.324069	0.129514	0.302059
476	H	0.348003	0.143232	0.300643
477	H	0.31236	0.138793	0.619427
478	H	0.320716	0.034618	0.347233
479	N	0.3747	0.268077	0.385048
480	C	0.361227	0.26687	0.343534
481	N	0.37899	0.265237	0.640985
482	C	0.374243	0.109611	0.378415
483	C	0.38328	0.116603	0.631964
484	C	0.361249	0.0982	0.66781
485	H	0.359571	0.099202	0.406383
486	H	0.375255	0.111276	0.599146
487	H	0.379757	0.207516	0.725412
488	H	0.375606	0.172353	0.042317
489	C	0.307205	0.265487	0.009864
490	C	0.325741	0.248649	0.007185
491	C	0.308007	0.212952	0.674643
492	H	0.321148	0.290869	0.010997
493	N	0.325089	0.195949	0.672756
494	H	0.314888	0.172544	0.679402
495	H	0.34796	0.206177	0.996412
496	C	0.307795	0.09723	0.650653
497	C	0.325743	0.080418	0.662262
498	C	0.307082	0.045826	0.673146
499	N	0.324069	0.129514	0.635392
500	H	0.348003	0.143232	0.633976
501	H	0.31236	0.138793	0.952761
502	H	0.320716	0.034618	0.680568
503	N	0.3747	0.268077	0.718379
504	C	0.361227	0.26687	0.676865
505	N	0.37899	0.265237	0.974319
506	C	0.374243	0.109611	0.71175
507	C	0.38328	0.116603	0.965295
508	C	0.361249	0.0982	0.001145
509	H	0.359571	0.099202	0.739717
510	H	0.375255	0.111276	0.93248
511	H	0.379758	0.707516	0.058743
512	H	0.375605	0.672353	0.375648
513	C	0.307206	0.765488	0.343199
514	C	0.325741	0.748648	0.340519
515	C	0.308007	0.712952	0.007974
516	H	0.321148	0.79087	0.34433
517	N	0.325088	0.695949	0.006087
518	H	0.314888	0.672545	0.012733
519	H	0.347958	0.706176	0.329744
520	C	0.307794	0.59723	0.983984
521	C	0.325742	0.580417	0.995596
522	C	0.307082	0.545826	0.006477
523	N	0.324068	0.629513	0.968726
524	H	0.348002	0.64323	0.967307
525	H	0.312359	0.638792	0.286093
526	H	0.320716	0.534617	0.0139
527	N	0.3747	0.768079	0.051713
528	C	0.361226	0.766869	0.0102
529	N	0.37899	0.765236	0.307651
530	C	0.374242	0.60961	0.045083
531	C	0.38328	0.616603	0.298629
532	C	0.361249	0.5982	0.334476
533	H	0.359572	0.599203	0.07305
534	H	0.375255	0.611275	0.265813
535	H	0.379758	0.707516	0.392077
536	H	0.375605	0.672353	0.708982
537	C	0.307206	0.765488	0.67653
538	C	0.325741	0.748648	0.673854
539	C	0.308007	0.712952	0.341309
540	H	0.321148	0.79087	0.677665
541	N	0.325088	0.695949	0.339422
542	H	0.314888	0.672545	0.346068
543	H	0.347958	0.706176	0.663078
544	C	0.307794	0.59723	0.317318
545	C	0.325742	0.580417	0.328929
546	C	0.307082	0.545826	0.339811
547	N	0.324068	0.629513	0.302058
548	H	0.348002	0.64323	0.300641
549	H	0.312359	0.638792	0.619427
550	H	0.320716	0.534617	0.347233
551	N	0.3747	0.768079	0.385048
552	C	0.361226	0.766869	0.343534
553	N	0.37899	0.765236	0.640985
554	C	0.374242	0.60961	0.378415
555	C	0.38328	0.616603	0.631964
556	C	0.361249	0.5982	0.66781
557	H	0.359572	0.599203	0.406383
558	H	0.375255	0.611275	0.599146
559	H	0.379758	0.707516	0.725412
560	H	0.375605	0.672353	0.042315
561	C	0.307206	0.765488	0.009864
562	C	0.325741	0.748648	0.007185
563	C	0.308007	0.712952	0.674643
564	H	0.321148	0.79087	0.010997
565	N	0.325088	0.695949	0.672756
566	H	0.314888	0.672545	0.679399
567	H	0.347958	0.706176	0.996409
568	C	0.307794	0.59723	0.650649
569	C	0.325742	0.580417	0.662262
570	C	0.307082	0.545826	0.673146
571	N	0.324068	0.629513	0.635392
572	H	0.348002	0.64323	0.633973
573	H	0.312359	0.638792	0.952761
574	H	0.320716	0.534617	0.680568
575	N	0.3747	0.768079	0.718379
576	C	0.361226	0.766869	0.676865
577	N	0.37899	0.765236	0.974319
578	C	0.374242	0.60961	0.71175
579	C	0.38328	0.616603	0.965295
580	C	0.361249	0.5982	0.001145
581	H	0.359572	0.599203	0.739717
582	H	0.375255	0.611275	0.93248
583	C	0.494084	0.248982	0.345214
584	C	0.474335	0.213268	0.343443
585	C	0.439571	0.194779	0.353219
586	C	0.422705	0.212753	0.030989
587	C	0.440054	0.248391	0.026178
588	C	0.474733	0.265199	0.016008
589	H	0.485426	0.199513	0.336089
590	N	0.389775	0.196243	0.043546
591	H	0.486106	0.290586	0.014165
592	C	0.404814	0.26998	0.058334
593	C	0.408943	0.266347	0.311498
594	C	0.422081	0.26598	0.35475
595	H	0.41096	0.267435	0.090779
596	H	0.41826	0.261309	0.283019
597	N	0.402485	0.139849	0.050642
598	C	0.421917	0.159299	0.015843
599	N	0.411044	0.146815	0.306853
600	C	0.494084	0.248982	0.678549
601	C	0.474335	0.213268	0.676777
602	C	0.439571	0.194779	0.68655
603	C	0.422705	0.212753	0.364323
604	C	0.440054	0.248391	0.35951
605	C	0.474733	0.265199	0.34934
606	H	0.485426	0.199513	0.669423
607	N	0.389775	0.196243	0.376877
608	H	0.486106	0.290586	0.347498
609	C	0.404814	0.26998	0.391667
610	C	0.408943	0.266347	0.64483
611	C	0.422081	0.26598	0.688085
612	H	0.41096	0.267435	0.424113
613	H	0.41826	0.261309	0.616351
614	N	0.402485	0.139849	0.383974
615	C	0.421917	0.159299	0.349178
616	N	0.411044	0.146815	0.640185
617	C	0.494084	0.248982	0.011881
618	C	0.474335	0.213268	0.01011
619	C	0.439571	0.194779	0.019885
620	C	0.422705	0.212753	0.697654
621	C	0.440054	0.248391	0.692844
622	C	0.474733	0.265199	0.682675
623	H	0.485426	0.199513	0.002757
624	N	0.389775	0.196243	0.710212
625	H	0.486106	0.290586	0.680832
626	C	0.404814	0.26998	0.725002
627	C	0.408943	0.266347	0.978164
628	C	0.422081	0.26598	0.021417
629	H	0.41096	0.267435	0.757447
630	H	0.41826	0.261309	0.949685
631	N	0.402485	0.139849	0.717309
632	C	0.421917	0.159299	0.682509
633	N	0.411044	0.146815	0.97352
634	C	0.494085	0.748981	0.345214
635	C	0.474334	0.713267	0.343443
636	C	0.439569	0.694779	0.353219
637	C	0.422704	0.712752	0.030988
638	C	0.440052	0.74839	0.026178
639	C	0.474733	0.765198	0.016008
640	H	0.485427	0.699512	0.336089
641	N	0.389773	0.696242	0.043544
642	H	0.486104	0.790585	0.014165
643	C	0.404815	0.769982	0.058334
644	C	0.408943	0.766346	0.311498
645	C	0.42208	0.765978	0.35475
646	H	0.410959	0.767436	0.090779
647	H	0.41826	0.761308	0.283019
648	N	0.402484	0.63985	0.050642
649	C	0.421916	0.659298	0.015843
650	N	0.411043	0.646813	0.306853
651	C	0.494085	0.748981	0.678549
652	C	0.474334	0.713267	0.676777
653	C	0.439569	0.694779	0.68655
654	C	0.422704	0.712752	0.36432
655	C	0.440052	0.74839	0.35951
656	C	0.474733	0.765198	0.34934
657	H	0.485427	0.699512	0.669423
658	N	0.389773	0.696242	0.376877
659	H	0.486104	0.790585	0.347498
660	C	0.404815	0.769982	0.391667
661	C	0.408943	0.766346	0.64483
662	C	0.42208	0.765978	0.688085
663	H	0.410959	0.767436	0.424113
664	H	0.41826	0.761308	0.616351
665	N	0.402484	0.63985	0.383974
666	C	0.421916	0.659298	0.349178
667	N	0.411043	0.646813	0.640185
668	C	0.494085	0.748981	0.011881
669	C	0.474334	0.713267	0.01011
670	C	0.439569	0.694779	0.019884
671	C	0.422704	0.712752	0.697654
672	C	0.440052	0.74839	0.692844
673	C	0.474733	0.765198	0.682675
674	H	0.485427	0.699512	0.002757
675	N	0.389773	0.696242	0.710212
676	H	0.486104	0.790585	0.680832
677	C	0.404815	0.769982	0.725002
678	C	0.408943	0.766346	0.978164
679	C	0.42208	0.765978	0.021417
680	H	0.410959	0.767436	0.757447
681	H	0.41826	0.761308	0.949685
682	N	0.402484	0.63985	0.717309
683	C	0.421916	0.659298	0.682509
684	N	0.411043	0.646813	0.97352
685	C	0.994087	0.248982	0.345214
686	C	0.974335	0.213268	0.343443
687	C	0.939571	0.194779	0.353219
688	C	0.922705	0.212753	0.030989
689	C	0.940054	0.248391	0.026178
690	C	0.974736	0.265199	0.016008
691	H	0.985429	0.199513	0.336089
692	N	0.889775	0.196243	0.043546
693	C	0.530463	0.267217	0.345238
694	C	0.549777	0.250957	0.015949
695	C	0.584475	0.267702	0.025973
696	C	0.601919	0.303353	0.030678
697	C	0.585016	0.321379	0.353409
698	C	0.550229	0.302938	0.343731
699	N	0.634996	0.319866	0.042534
700	H	0.539118	0.316736	0.336786
701	H	0.645276	0.308659	0.057205
702	H	0.649289	0.34371	0.373815
703	H	0.879759	0.207516	0.058745
704	H	0.875606	0.172353	0.375651
705	H	0.986106	0.290586	0.014165
706	H	0.538363	0.225565	0.014139
707	C	0.771417	0.249129	0.343151
708	C	0.807206	0.265487	0.343199
709	C	0.825742	0.248649	0.340519
710	C	0.808008	0.212952	0.007977
711	C	0.772348	0.194987	0.010649
712	C	0.755287	0.21336	0.009664
713	H	0.821148	0.290869	0.34433
714	N	0.825089	0.195949	0.006091
715	C	0.753081	0.267185	0.342955
716	C	0.769186	0.302951	0.009212
717	C	0.752078	0.321286	0.009464
718	C	0.716431	0.303283	0.00645
719	C	0.698727	0.267585	0.339628
720	C	0.717289	0.250807	0.342989
721	N	0.699344	0.320256	0.003821
722	H	0.703359	0.225441	0.344611
723	H	0.709558	0.343725	0.009974
724	H	0.67649	0.309957	0.327358
725	H	0.814888	0.172544	0.012736
726	H	0.84796	0.206177	0.329746
727	H	0.729904	0.199273	0.009405
728	H	0.79457	0.317053	0.009256
729	C	0.771346	0.026359	0.338934
730	C	0.755405	0.046	0.335521
731	C	0.772358	0.080434	0.324014
732	C	0.807795	0.09723	0.983984
733	C	0.825743	0.080418	0.995596
734	C	0.807082	0.045826	0.006477
735	H	0.730103	0.034964	0.338621
736	N	0.824069	0.129514	0.968726
737	C	0.752841	0.490005	0.338914
738	C	0.717105	0.470534	0.006751
739	C	0.698408	0.435976	0.995684
740	C	0.716318	0.419223	0.983577
741	C	0.751744	0.435943	0.323632
742	C	0.768757	0.470351	0.33526
743	N	0.70003	0.387115	0.967666
744	H	0.794053	0.481346	0.338396
745	H	0.676109	0.373608	0.965552
746	H	0.711809	0.378101	0.284583
747	H	0.848003	0.143232	0.96731
748	H	0.81236	0.138793	0.286095
749	H	0.820718	0.034618	0.0139
750	H	0.703498	0.481716	0.014506
751	C	0.619816	0.246205	0.058008
752	N	0.649955	0.248209	0.051184
753	C	0.663257	0.249343	0.00957
754	N	0.645268	0.250705	0.307123
755	C	0.615278	0.249482	0.311174
756	C	0.602359	0.250032	0.354517
757	H	0.613821	0.248885	0.090479
758	H	0.605797	0.25437	0.282737
759	C	0.768804	0.375655	0.044445
760	N	0.766168	0.403423	0.037391
761	C	0.768415	0.417285	0.995867
762	N	0.771524	0.400312	0.29352
763	C	0.773981	0.372242	0.297849
764	C	0.770359	0.356942	0.340699
765	H	0.763041	0.365264	0.076084
766	H	0.772445	0.359448	0.268835
767	C	0.650585	0.406293	0.045897
768	N	0.62242	0.376001	0.051483
769	C	0.602608	0.356912	0.016726
770	N	0.612898	0.369719	0.307726
771	C	0.640561	0.400017	0.299494
772	C	0.662949	0.418075	0.335161
773	H	0.6656	0.416475	0.073631
774	H	0.648222	0.405663	0.266578
775	C	0.904816	0.26998	0.058334
776	N	0.8747	0.268077	0.051713
777	C	0.861227	0.26687	0.0102
778	N	0.87899	0.265237	0.307651
779	C	0.908943	0.266347	0.311498
780	C	0.922081	0.26598	0.35475
781	H	0.91096	0.267435	0.090779
782	H	0.91826	0.261309	0.283019
783	C	0.755378	0.140445	0.045466
784	N	0.75789	0.112629	0.038198
785	C	0.755605	0.099008	0.996507
786	N	0.752577	0.116051	0.294209
787	C	0.75029	0.144203	0.298806
788	C	0.754017	0.159326	0.341817
789	H	0.761166	0.150749	0.077152
790	H	0.751876	0.157132	0.269907
791	C	0.874243	0.109611	0.045083
792	N	0.902485	0.139849	0.050642
793	C	0.921917	0.159299	0.015843
794	N	0.911044	0.146815	0.306853
795	C	0.88328	0.116603	0.298629
796	C	0.861249	0.0982	0.334476
797	H	0.859574	0.099202	0.07305
798	H	0.875255	0.111276	0.265813
799	C	0.994087	0.248982	0.678549
800	C	0.974335	0.213268	0.676777
801	C	0.939571	0.194779	0.68655
802	C	0.922705	0.212753	0.364323
803	C	0.940054	0.248391	0.35951
804	C	0.974736	0.265199	0.34934
805	H	0.985429	0.199513	0.669423
806	N	0.889775	0.196243	0.376877
807	C	0.530463	0.267217	0.678569
808	C	0.549777	0.250957	0.349283
809	C	0.584475	0.267702	0.359306
810	C	0.601919	0.303353	0.364012
811	C	0.585016	0.321379	0.686743
812	C	0.550229	0.302938	0.677065
813	N	0.634996	0.319866	0.375868
814	H	0.539118	0.316736	0.670121
815	H	0.645276	0.308659	0.390539
816	H	0.649289	0.34371	0.707146
817	H	0.879759	0.207516	0.392077
818	H	0.875606	0.172353	0.708982
819	H	0.986106	0.290586	0.347498
820	H	0.538363	0.225565	0.347474
821	C	0.771417	0.249129	0.676486
822	C	0.807206	0.265487	0.67653
823	C	0.825742	0.248649	0.673854
824	C	0.808008	0.212952	0.341309
825	C	0.772348	0.194987	0.343981
826	C	0.755287	0.21336	0.342999
827	H	0.821148	0.290869	0.677665
828	N	0.825089	0.195949	0.339422
829	C	0.753081	0.267185	0.676286
830	C	0.769186	0.302951	0.342545
831	C	0.752078	0.321286	0.342796
832	C	0.716431	0.303283	0.339784
833	C	0.698727	0.267585	0.672959
834	C	0.717289	0.250807	0.67632
835	N	0.699344	0.320256	0.337154
836	H	0.703359	0.225441	0.677946
837	H	0.709558	0.343725	0.343307
838	H	0.67649	0.309957	0.66069
839	H	0.814888	0.172544	0.346068
840	H	0.84796	0.206177	0.663078
841	H	0.729904	0.199273	0.342738
842	H	0.79457	0.317053	0.342589
843	C	0.771346	0.026359	0.672268
844	C	0.755405	0.046	0.668854
845	C	0.772358	0.080434	0.657346
846	C	0.807795	0.09723	0.317318
847	C	0.825743	0.080418	0.32893
848	C	0.807082	0.045826	0.339811
849	H	0.730103	0.034964	0.671953
850	N	0.824069	0.129514	0.302059
851	C	0.752841	0.490005	0.672245
852	C	0.717105	0.470534	0.340086
853	C	0.698408	0.435976	0.329019
854	C	0.716318	0.419223	0.316911
855	C	0.751744	0.435943	0.656964
856	C	0.768757	0.470351	0.668593
857	N	0.70003	0.387115	0.301
858	H	0.794053	0.481346	0.67173
859	H	0.676109	0.373608	0.298887
860	H	0.711809	0.378101	0.617916
861	H	0.848003	0.143232	0.300643
862	H	0.81236	0.138793	0.619427
863	H	0.820718	0.034618	0.347233
864	H	0.703498	0.481716	0.34784
865	C	0.619816	0.246205	0.391342
866	N	0.649955	0.248209	0.384516
867	C	0.663257	0.249343	0.342904
868	N	0.645268	0.250705	0.640456
869	C	0.615278	0.249482	0.644508
870	C	0.602359	0.250032	0.687851
871	H	0.613821	0.248885	0.423811
872	H	0.605797	0.25437	0.61607
873	C	0.768804	0.375655	0.377779
874	N	0.766168	0.403423	0.370726
875	C	0.768415	0.417285	0.329201
876	N	0.771524	0.400312	0.626855
877	C	0.773981	0.372242	0.631181
878	C	0.770359	0.356942	0.674033
879	H	0.763041	0.365264	0.409418
880	H	0.772445	0.359448	0.602167
881	C	0.650585	0.406293	0.379232
882	N	0.62242	0.376001	0.384814
883	C	0.602608	0.356912	0.350059
884	N	0.612898	0.369719	0.641059
885	C	0.640561	0.400017	0.632828
886	C	0.662949	0.418075	0.668495
887	H	0.6656	0.416475	0.406965
888	H	0.648222	0.405663	0.599911
889	C	0.904816	0.26998	0.391667
890	N	0.8747	0.268077	0.385048
891	C	0.861227	0.26687	0.343534
892	N	0.87899	0.265237	0.640985
893	C	0.908943	0.266347	0.64483
894	C	0.922081	0.26598	0.688085
895	H	0.91096	0.267435	0.424113
896	H	0.91826	0.261309	0.616351
897	C	0.755378	0.140445	0.378798
898	N	0.75789	0.112629	0.371532
899	C	0.755605	0.099008	0.329841
900	N	0.752577	0.116051	0.627543
901	C	0.75029	0.144203	0.63214
902	C	0.754017	0.159326	0.675151
903	H	0.761166	0.150749	0.410485
904	H	0.751876	0.157132	0.603241
905	C	0.874243	0.109611	0.378415
906	N	0.902485	0.139849	0.383974
907	C	0.921917	0.159299	0.349178
908	N	0.911044	0.146815	0.640185
909	C	0.88328	0.116603	0.631964
910	C	0.861249	0.0982	0.66781
911	H	0.859574	0.099202	0.406383
912	H	0.875255	0.111276	0.599146
913	C	0.994087	0.248982	0.011881
914	C	0.974335	0.213268	0.01011
915	C	0.939571	0.194779	0.019885
916	C	0.922705	0.212753	0.697654
917	C	0.940054	0.248391	0.692844
918	C	0.974736	0.265199	0.682675
919	H	0.985429	0.199513	0.002757
920	N	0.889775	0.196243	0.710212
921	C	0.530463	0.267217	0.011904
922	C	0.549777	0.250957	0.682617
923	C	0.584475	0.267702	0.692641
924	C	0.601919	0.303353	0.697346
925	C	0.585016	0.321379	0.020075
926	C	0.550229	0.302938	0.010398
927	N	0.634996	0.319866	0.709202
928	H	0.539118	0.316736	0.003452
929	H	0.645276	0.308659	0.72387
930	H	0.649289	0.34371	0.04048
931	H	0.879759	0.207516	0.725412
932	H	0.875606	0.172353	0.042317
933	H	0.986106	0.290586	0.680832
934	H	0.538363	0.225565	0.680805
935	C	0.771417	0.249129	0.009819
936	C	0.807206	0.265487	0.009864
937	C	0.825742	0.248649	0.007185
938	C	0.808008	0.212952	0.674643
939	C	0.772348	0.194987	0.677316
940	C	0.755287	0.21336	0.67633
941	H	0.821148	0.290869	0.010997
942	N	0.825089	0.195949	0.672756
943	C	0.753081	0.267185	0.00962
944	C	0.769186	0.302951	0.675879
945	C	0.752078	0.321286	0.67613
946	C	0.716431	0.303283	0.673119
947	C	0.698727	0.267585	0.006294
948	C	0.717289	0.250807	0.009654
949	N	0.699344	0.320256	0.670487
950	H	0.703359	0.225441	0.011278
951	H	0.709558	0.343725	0.676642
952	H	0.67649	0.309957	0.994024
953	H	0.814888	0.172544	0.679402
954	H	0.84796	0.206177	0.996412
955	H	0.729904	0.199273	0.676073
956	H	0.79457	0.317053	0.675923
957	C	0.771346	0.026359	0.005599
958	C	0.755405	0.046	0.002188
959	C	0.772358	0.080434	0.990681
960	C	0.807795	0.09723	0.650653
961	C	0.825743	0.080418	0.662262
962	C	0.807082	0.045826	0.673146
963	H	0.730103	0.034964	0.005288
964	N	0.824069	0.129514	0.635392
965	C	0.752841	0.490005	0.005579
966	C	0.717105	0.470534	0.67342
967	C	0.698408	0.435976	0.662353
968	C	0.716318	0.419223	0.650243
969	C	0.751744	0.435943	0.990298
970	C	0.768757	0.470351	0.001927
971	N	0.70003	0.387115	0.634332
972	H	0.794053	0.481346	0.005064
973	H	0.676109	0.373608	0.632221
974	H	0.711809	0.378101	0.95125
975	H	0.848003	0.143232	0.633976
976	H	0.81236	0.138793	0.952761
977	H	0.820718	0.034618	0.680568
978	H	0.703498	0.481716	0.681174
979	C	0.619816	0.246205	0.724673
980	N	0.649955	0.248209	0.717851
981	C	0.663257	0.249343	0.676239
982	N	0.645268	0.250705	0.973791
983	C	0.615278	0.249482	0.977842
984	C	0.602359	0.250032	0.021184
985	H	0.613821	0.248885	0.757146
986	H	0.605797	0.25437	0.949404
987	C	0.768804	0.375655	0.711113
988	N	0.766168	0.403423	0.704057
989	C	0.768415	0.417285	0.662533
990	N	0.771524	0.400312	0.960186
991	C	0.773981	0.372242	0.964516
992	C	0.770359	0.356942	0.007368
993	H	0.763041	0.365264	0.742752
994	H	0.772445	0.359448	0.935502
995	C	0.650585	0.406293	0.712563
996	N	0.62242	0.376001	0.718149
997	C	0.602608	0.356912	0.683393
998	N	0.612898	0.369719	0.974394
999	C	0.640561	0.400017	0.966159
1000	C	0.662949	0.418075	0.001829
1001	H	0.6656	0.416475	0.740296
1002	H	0.648222	0.405663	0.933246
1003	C	0.904816	0.26998	0.725002
1004	N	0.8747	0.268077	0.718379
1005	C	0.861227	0.26687	0.676865
1006	N	0.87899	0.265237	0.974319
1007	C	0.908943	0.266347	0.978164
1008	C	0.922081	0.26598	0.021417
1009	H	0.91096	0.267435	0.757447
1010	H	0.91826	0.261309	0.949685
1011	C	0.755378	0.140445	0.712133
1012	N	0.75789	0.112629	0.704863
1013	C	0.755605	0.099008	0.663173
1014	N	0.752577	0.116051	0.960874
1015	C	0.75029	0.144203	0.965474
1016	C	0.754017	0.159326	0.008484
1017	H	0.761166	0.150749	0.743819
1018	H	0.751876	0.157132	0.936572
1019	C	0.874243	0.109611	0.71175
1020	N	0.902485	0.139849	0.717309
1021	C	0.921917	0.159299	0.682509
1022	N	0.911044	0.146815	0.97352
1023	C	0.88328	0.116603	0.965295
1024	C	0.861249	0.0982	0.001145
1025	H	0.859574	0.099202	0.739717
1026	H	0.875255	0.111276	0.93248
1027	C	0.994085	0.748981	0.345214
1028	C	0.974335	0.713267	0.343443
1029	C	0.93957	0.694779	0.353219
1030	C	0.922703	0.712752	0.030988
1031	C	0.940052	0.74839	0.026178
1032	C	0.974734	0.765198	0.016008
1033	H	0.985427	0.699512	0.336089
1034	N	0.889773	0.696242	0.043544
1035	C	0.530462	0.767216	0.345238
1036	C	0.549776	0.750956	0.015949
1037	C	0.584475	0.767704	0.025973
1038	C	0.601918	0.803352	0.030678
1039	C	0.585016	0.821378	0.353409
1040	C	0.550228	0.802937	0.343731
1041	N	0.634994	0.819865	0.042534
1042	H	0.539117	0.816734	0.336786
1043	H	0.645278	0.808661	0.057205
1044	H	0.649287	0.843709	0.373812
1045	H	0.879758	0.707516	0.058743
1046	H	0.875604	0.672353	0.375648
1047	H	0.986104	0.790585	0.014165
1048	H	0.538362	0.725564	0.014139
1049	C	0.771416	0.749128	0.343151
1050	C	0.807205	0.765488	0.343199
1051	C	0.82574	0.748648	0.340519
1052	C	0.808007	0.712952	0.007974
1053	C	0.772346	0.694986	0.010649
1054	C	0.755288	0.71336	0.009664
1055	H	0.821148	0.79087	0.34433
1056	N	0.825088	0.695949	0.006087
1057	C	0.753079	0.767184	0.342955
1058	C	0.769186	0.802952	0.009213
1059	C	0.752077	0.821285	0.009464
1060	C	0.71643	0.803282	0.00645
1061	C	0.698728	0.767584	0.339628
1062	C	0.71729	0.750806	0.342989
1063	N	0.699342	0.820255	0.003821
1064	H	0.703357	0.725439	0.344611
1065	H	0.70956	0.843726	0.009974
1066	H	0.67649	0.809956	0.327357
1067	H	0.814889	0.672545	0.012733
1068	H	0.847958	0.706176	0.329744
1069	H	0.729905	0.699272	0.009405
1070	H	0.794568	0.817052	0.009256
1071	C	0.771345	0.526358	0.338934
1072	C	0.755403	0.545999	0.335521
1073	C	0.772359	0.580435	0.324014
1074	C	0.807794	0.59723	0.983984
1075	C	0.825743	0.580417	0.995596
1076	C	0.807082	0.545826	0.006477
1077	H	0.730103	0.534965	0.338621
1078	N	0.824068	0.629513	0.968726
1079	C	0.752841	0.990006	0.338914
1080	C	0.717107	0.970535	0.006751
1081	C	0.698408	0.935977	0.995688
1082	C	0.716316	0.919222	0.983577
1083	C	0.751743	0.935944	0.323632
1084	C	0.768755	0.97035	0.33526
1085	N	0.700032	0.887116	0.967666
1086	H	0.794052	0.981347	0.338396
1087	H	0.676107	0.873606	0.965552
1088	H	0.71181	0.8781	0.284583
1089	H	0.848003	0.64323	0.967307
1090	H	0.812358	0.638792	0.286093
1091	H	0.820717	0.534617	0.0139
1092	H	0.703498	0.981715	0.014506
1093	C	0.619814	0.746205	0.058008
1094	N	0.649954	0.748208	0.051184
1095	C	0.663258	0.749343	0.00957
1096	N	0.645269	0.750706	0.307123
1097	C	0.615276	0.749481	0.311174
1098	C	0.60236	0.750031	0.354517
1099	H	0.61382	0.748886	0.090479
1100	H	0.605798	0.754369	0.282737
1101	C	0.768802	0.875654	0.044445
1102	N	0.766166	0.903421	0.037391
1103	C	0.768415	0.917284	0.995867
1104	N	0.771524	0.900313	0.293521
1105	C	0.77398	0.872241	0.29785
1106	C	0.770357	0.856941	0.340699
1107	H	0.763041	0.865263	0.076084
1108	H	0.772446	0.859447	0.268836
1109	C	0.650584	0.906292	0.045898
1110	N	0.622419	0.875999	0.051483
1111	C	0.602606	0.856911	0.016726
1112	N	0.612897	0.869718	0.307726
1113	C	0.64056	0.900016	0.299494
1114	C	0.662949	0.918076	0.335162
1115	H	0.6656	0.916474	0.073632
1116	H	0.648222	0.905664	0.266578
1117	C	0.904815	0.769982	0.058334
1118	N	0.8747	0.768079	0.051713
1119	C	0.861226	0.766869	0.0102
1120	N	0.878991	0.765236	0.307651
1121	C	0.908944	0.766346	0.311498
1122	C	0.92208	0.765978	0.35475
1123	H	0.910959	0.767436	0.090779
1124	H	0.918261	0.761308	0.283019
1125	C	0.755379	0.640445	0.045465
1126	N	0.757892	0.61263	0.038198
1127	C	0.755604	0.599008	0.996507
1128	N	0.752575	0.616051	0.294209
1129	C	0.750289	0.644203	0.298806
1130	C	0.754018	0.659326	0.341817
1131	H	0.761167	0.650749	0.077152
1132	H	0.751874	0.65713	0.269907
1133	C	0.874242	0.60961	0.045083
1134	N	0.902484	0.63985	0.050642
1135	C	0.921916	0.659298	0.015843
1136	N	0.911044	0.646813	0.306853
1137	C	0.88328	0.616603	0.298629
1138	C	0.86125	0.5982	0.334476
1139	H	0.859573	0.599203	0.07305
1140	H	0.875256	0.611275	0.265813
1141	C	0.994085	0.748981	0.678549
1142	C	0.974335	0.713267	0.676777
1143	C	0.93957	0.694779	0.68655
1144	C	0.922703	0.712752	0.36432
1145	C	0.940052	0.74839	0.35951
1146	C	0.974734	0.765198	0.34934
1147	H	0.985427	0.699512	0.669423
1148	N	0.889773	0.696242	0.376877
1149	C	0.530462	0.767216	0.678573
1150	C	0.549776	0.750956	0.349283
1151	C	0.584475	0.767704	0.359306
1152	C	0.601918	0.803352	0.364012
1153	C	0.585016	0.821378	0.686743
1154	C	0.550228	0.802937	0.677065
1155	N	0.634994	0.819865	0.375868
1156	H	0.539117	0.816734	0.670121
1157	H	0.645278	0.808661	0.390539
1158	H	0.649287	0.843709	0.707146
1159	H	0.879758	0.707516	0.392077
1160	H	0.875604	0.672353	0.708982
1161	H	0.986104	0.790585	0.347498
1162	H	0.538362	0.725564	0.347474
1163	C	0.771416	0.749128	0.676486
1164	C	0.807205	0.765488	0.67653
1165	C	0.82574	0.748648	0.673854
1166	C	0.808007	0.712952	0.341309
1167	C	0.772346	0.694986	0.343981
1168	C	0.755288	0.71336	0.342999
1169	H	0.821148	0.79087	0.677665
1170	N	0.825088	0.695949	0.339422
1171	C	0.753079	0.767184	0.676286
1172	C	0.769186	0.802952	0.342545
1173	C	0.752077	0.821285	0.342799
1174	C	0.71643	0.803282	0.339784
1175	C	0.698728	0.767584	0.672959
1176	C	0.71729	0.750806	0.67632
1177	N	0.699342	0.820255	0.337154
1178	H	0.703357	0.725439	0.677946
1179	H	0.70956	0.843726	0.343307
1180	H	0.67649	0.809956	0.66069
1181	H	0.814889	0.672545	0.346068
1182	H	0.847958	0.706176	0.663078
1183	H	0.729905	0.699272	0.342738
1184	H	0.794568	0.817052	0.342589
1185	C	0.771345	0.526358	0.672268
1186	C	0.755403	0.545999	0.668854
1187	C	0.772359	0.580435	0.657346
1188	C	0.807794	0.59723	0.317318
1189	C	0.825743	0.580417	0.328929
1190	C	0.807082	0.545826	0.339811
1191	H	0.730103	0.534965	0.671953
1192	N	0.824068	0.629513	0.302058
1193	C	0.752841	0.990006	0.672245
1194	C	0.717107	0.970535	0.340086
1195	C	0.698408	0.935977	0.329019
1196	C	0.716316	0.919222	0.316911
1197	C	0.751743	0.935944	0.656964
1198	C	0.768755	0.97035	0.668593
1199	N	0.700032	0.887116	0.301
1200	H	0.794052	0.981347	0.67173
1201	H	0.676107	0.873606	0.298887
1202	H	0.71181	0.8781	0.617916
1203	H	0.848003	0.64323	0.300641
1204	H	0.812358	0.638792	0.619427
1205	H	0.820717	0.534617	0.347233
1206	H	0.703498	0.981715	0.34784
1207	C	0.619814	0.746205	0.391342
1208	N	0.649954	0.748208	0.384516
1209	C	0.663258	0.749343	0.342904
1210	N	0.645269	0.750706	0.640456
1211	C	0.615276	0.749481	0.644508
1212	C	0.60236	0.750031	0.687851
1213	H	0.61382	0.748886	0.423811
1214	H	0.605798	0.754369	0.61607
1215	C	0.768802	0.875654	0.377779
1216	N	0.766166	0.903421	0.370726
1217	C	0.768415	0.917284	0.329201
1218	N	0.771524	0.900313	0.626855
1219	C	0.77398	0.872241	0.631185
1220	C	0.770357	0.856941	0.674033
1221	H	0.763041	0.865263	0.409418
1222	H	0.772446	0.859447	0.602171
1223	C	0.650584	0.906292	0.379232
1224	N	0.622419	0.875999	0.384818
1225	C	0.602606	0.856911	0.350059
1226	N	0.612897	0.869718	0.641059
1227	C	0.64056	0.900016	0.632828
1228	C	0.662949	0.918076	0.668495
1229	H	0.6656	0.916474	0.406965
1230	H	0.648222	0.905664	0.599911
1231	C	0.904815	0.769982	0.391667
1232	N	0.8747	0.768079	0.385048
1233	C	0.861226	0.766869	0.343534
1234	N	0.878991	0.765236	0.640985
1235	C	0.908944	0.766346	0.64483
1236	C	0.92208	0.765978	0.688085
1237	H	0.910959	0.767436	0.424113
1238	H	0.918261	0.761308	0.616351
1239	C	0.755379	0.640445	0.378798
1240	N	0.757892	0.61263	0.371532
1241	C	0.755604	0.599008	0.329841
1242	N	0.752575	0.616051	0.627543
1243	C	0.750289	0.644203	0.63214
1244	C	0.754018	0.659326	0.675151
1245	H	0.761167	0.650749	0.410485
1246	H	0.751874	0.65713	0.603241
1247	C	0.874242	0.60961	0.378415
1248	N	0.902484	0.63985	0.383974
1249	C	0.921916	0.659298	0.349178
1250	N	0.911044	0.646813	0.640185
1251	C	0.88328	0.616603	0.631964
1252	C	0.86125	0.5982	0.66781
1253	H	0.859573	0.599203	0.406383
1254	H	0.875256	0.611275	0.599146
1255	C	0.994085	0.748981	0.011881
1256	C	0.974335	0.713267	0.01011
1257	C	0.93957	0.694779	0.019884
1258	C	0.922703	0.712752	0.697654
1259	C	0.940052	0.74839	0.692844
1260	C	0.974734	0.765198	0.682675
1261	H	0.985427	0.699512	0.002757
1262	N	0.889773	0.696242	0.710212
1263	C	0.530462	0.767216	0.011904
1264	C	0.549776	0.750956	0.682617
1265	C	0.584475	0.767704	0.692641
1266	C	0.601918	0.803352	0.697346
1267	C	0.585016	0.821378	0.020075
1268	C	0.550228	0.802937	0.010399
1269	N	0.634994	0.819865	0.709202
1270	H	0.539117	0.816734	0.003452
1271	H	0.645278	0.808661	0.72387
1272	H	0.649287	0.843709	0.04048
1273	H	0.879758	0.707516	0.725412
1274	H	0.875604	0.672353	0.042315
1275	H	0.986104	0.790585	0.680832
1276	H	0.538362	0.725564	0.680805
1277	C	0.771416	0.749128	0.009819
1278	C	0.807205	0.765488	0.009864
1279	C	0.82574	0.748648	0.007185
1280	C	0.808007	0.712952	0.674643
1281	C	0.772346	0.694986	0.677316
1282	C	0.755288	0.71336	0.67633
1283	H	0.821148	0.79087	0.010997
1284	N	0.825088	0.695949	0.672756
1285	C	0.753079	0.767184	0.009621
1286	C	0.769186	0.802952	0.675879
1287	C	0.752077	0.821285	0.67613
1288	C	0.71643	0.803282	0.673119
1289	C	0.698728	0.767584	0.006294
1290	C	0.71729	0.750806	0.009654
1291	N	0.699342	0.820255	0.670487
1292	H	0.703357	0.725439	0.011278
1293	H	0.70956	0.843726	0.676642
1294	H	0.67649	0.809956	0.994024
1295	H	0.814889	0.672545	0.679399
1296	H	0.847958	0.706176	0.996409
1297	H	0.729905	0.699272	0.676073
1298	H	0.794568	0.817052	0.675923
1299	C	0.771345	0.526358	0.005599
1300	C	0.755403	0.545999	0.002188
1301	C	0.772359	0.580435	0.990681
1302	C	0.807794	0.59723	0.650649
1303	C	0.825743	0.580417	0.662262
1304	C	0.807082	0.545826	0.673146
1305	H	0.730103	0.534965	0.005288
1306	N	0.824068	0.629513	0.635392
1307	C	0.752841	0.990006	0.005579
1308	C	0.717107	0.970535	0.67342
1309	C	0.698408	0.935977	0.662353
1310	C	0.716316	0.919222	0.650243
1311	C	0.751743	0.935944	0.990298
1312	C	0.768755	0.97035	0.001927
1313	N	0.700032	0.887116	0.634335
1314	H	0.794052	0.981347	0.005064
1315	H	0.676107	0.873606	0.632221
1316	H	0.71181	0.8781	0.95125
1317	H	0.848003	0.64323	0.633973
1318	H	0.812358	0.638792	0.952761
1319	H	0.820717	0.534617	0.680568
1320	H	0.703498	0.981715	0.681174
1321	C	0.619814	0.746205	0.724673
1322	N	0.649954	0.748208	0.717851
1323	C	0.663258	0.749343	0.676239
1324	N	0.645269	0.750706	0.973791
1325	C	0.615276	0.749481	0.977842
1326	C	0.60236	0.750031	0.021184
1327	H	0.61382	0.748886	0.757146
1328	H	0.605798	0.754369	0.949404
1329	C	0.768802	0.875654	0.711113
1330	N	0.766166	0.903421	0.704057
1331	C	0.768415	0.917284	0.662536
1332	N	0.771524	0.900313	0.960186
1333	C	0.77398	0.872241	0.964516
1334	C	0.770357	0.856941	0.007368
1335	H	0.763041	0.865263	0.742752
1336	H	0.772446	0.859447	0.935502
1337	C	0.650584	0.906292	0.712563
1338	N	0.622419	0.875999	0.718149
1339	C	0.602606	0.856911	0.683393
1340	N	0.612897	0.869718	0.974394
1341	C	0.64056	0.900016	0.966162
1342	C	0.662949	0.918076	0.001829
1343	H	0.6656	0.916474	0.7403
1344	H	0.648222	0.905664	0.933246
1345	C	0.904815	0.769982	0.725002
1346	N	0.8747	0.768079	0.718379
1347	C	0.861226	0.766869	0.676865
1348	N	0.878991	0.765236	0.974319
1349	C	0.908944	0.766346	0.978164
1350	C	0.92208	0.765978	0.021417
1351	H	0.910959	0.767436	0.757447
1352	H	0.918261	0.761308	0.949685
1353	C	0.755379	0.640445	0.712133
1354	N	0.757892	0.61263	0.704863
1355	C	0.755604	0.599008	0.663173
1356	N	0.752575	0.616051	0.960874
1357	C	0.750289	0.644203	0.965474
1358	C	0.754018	0.659326	0.008484
1359	H	0.761167	0.650749	0.743819
1360	H	0.751874	0.65713	0.936572
1361	C	0.874242	0.60961	0.71175
1362	N	0.902484	0.63985	0.717309
1363	C	0.921916	0.659298	0.682509
1364	N	0.911044	0.646813	0.97352
1365	C	0.88328	0.616603	0.965295
1366	C	0.86125	0.5982	0.001145
1367	H	0.859573	0.599203	0.739717
1368	H	0.875256	0.611275	0.93248
