data_C864H576N72O72_2018-02-15_10:34:51
#******************************************
#
# CIF file created by Zeo++
# Zeo++ is an open source package to
# analyze microporous materials
#
#*******************************************

_cell_length_a		46.5842   
_cell_length_b		46.5843   
_cell_length_c		29.6264   
_cell_angle_alpha		90   
_cell_angle_beta		90   
_cell_angle_gamma		120   

_symmetry_space_group_name_H-M		'P1'
_symmetry_Int_Tables_number		1
_symmetry_cell_setting		Monoclinic

loop_
_symmetry_equiv_pos_as_xyz
'+x,+y,+z'

loop_
_atom_site_label
_atom_site_type_symbol
_atom_site_fract_x
_atom_site_fract_y
_atom_site_fract_z
1	C	0.027556	0.265413	0.326617
2	C	0.047795	0.301164	0.324353
3	C	0.081337	0.31853	0.3394
4	C	0.096758	0.299798	0.015513
5	C	0.080446	0.265229	0.010247
6	C	0.046161	0.248803	0.000443
7	H	0.121685	0.312045	0.022673
8	H	0.03474	0.22383	0.003751
9	O	0.036424	0.321127	0.308792
10	H	0.032389	0.316581	0.276296
11	C	0.110087	0.240444	0.309301
12	C	0.140765	0.241091	0.307151
13	C	0.119282	0.255716	0.055487
14	C	0.099565	0.249353	0.015933
15	H	0.098102	0.238393	0.279433
16	N	0.110306	0.26309	0.095688
17	H	0.1238	0.267379	0.122667
18	H	0.088949	0.261762	0.099566
19	C	0.143028	0.405679	0.309193
20	C	0.113014	0.374985	0.30701
21	C	0.101647	0.353505	0.011396
22	C	0.119132	0.365829	0.052479
23	H	0.102754	0.366206	0.275931
24	H	0.111472	0.350612	0.080209
25	C	0.027556	0.265413	0.659949
26	C	0.047795	0.301164	0.657684
27	C	0.081337	0.31853	0.672732
28	C	0.096758	0.299798	0.348848
29	C	0.080446	0.265229	0.343579
30	C	0.046161	0.248803	0.333777
31	H	0.121685	0.312045	0.356007
32	H	0.03474	0.22383	0.337086
33	O	0.036424	0.321127	0.642124
34	H	0.032389	0.316581	0.609629
35	C	0.110087	0.240444	0.642634
36	C	0.140765	0.241091	0.640484
37	C	0.119282	0.255716	0.388819
38	C	0.099565	0.249353	0.349267
39	H	0.098102	0.238393	0.612765
40	N	0.110306	0.26309	0.42902
41	H	0.1238	0.267379	0.455999
42	H	0.088949	0.261762	0.432898
43	C	0.143028	0.405679	0.642526
44	C	0.113014	0.374985	0.640342
45	C	0.101647	0.353505	0.34473
46	C	0.119132	0.365829	0.385812
47	H	0.102754	0.366206	0.609265
48	H	0.111472	0.350612	0.41354
49	C	0.027556	0.265413	0.993284
50	C	0.047795	0.301164	0.991019
51	C	0.081337	0.31853	0.006067
52	C	0.096758	0.299798	0.68218
53	C	0.080446	0.265229	0.676914
54	C	0.046161	0.248803	0.667109
55	H	0.121685	0.312045	0.689339
56	H	0.03474	0.22383	0.67042
57	O	0.036424	0.321127	0.975459
58	H	0.032389	0.316581	0.942961
59	C	0.110087	0.240444	0.975965
60	C	0.140765	0.241091	0.973818
61	C	0.119282	0.255716	0.722154
62	C	0.099565	0.249353	0.682598
63	H	0.098102	0.238393	0.9461
64	N	0.110306	0.26309	0.762355
65	H	0.1238	0.267379	0.789334
66	H	0.088949	0.261762	0.766233
67	C	0.143028	0.405679	0.975861
68	C	0.113014	0.374985	0.973677
69	C	0.101647	0.353505	0.678062
70	C	0.119132	0.365829	0.719143
71	H	0.102754	0.366206	0.942596
72	H	0.111472	0.350612	0.746875
73	C	0.027555	0.765411	0.326617
74	C	0.047795	0.801164	0.324353
75	C	0.081336	0.81853	0.3394
76	C	0.096756	0.799796	0.015513
77	C	0.080445	0.765227	0.010247
78	C	0.04616	0.748801	0.000443
79	H	0.121686	0.812046	0.022673
80	H	0.03474	0.72383	0.003751
81	O	0.036423	0.821125	0.308792
82	H	0.032389	0.816582	0.276296
83	C	0.110087	0.740445	0.309301
84	C	0.140765	0.741089	0.307151
85	C	0.119281	0.755716	0.055487
86	C	0.099564	0.749353	0.015933
87	H	0.098102	0.738392	0.279433
88	N	0.110305	0.763091	0.095688
89	H	0.123801	0.767379	0.122667
90	H	0.088949	0.761762	0.099566
91	C	0.143029	0.90568	0.309193
92	C	0.113014	0.874986	0.30701
93	C	0.101646	0.853505	0.011396
94	C	0.119132	0.865829	0.052479
95	H	0.102754	0.866203	0.275931
96	H	0.111471	0.85061	0.080209
97	C	0.027555	0.765411	0.659949
98	C	0.047795	0.801164	0.657684
99	C	0.081336	0.81853	0.672732
100	C	0.096756	0.799796	0.348848
101	C	0.080445	0.765227	0.343579
102	C	0.04616	0.748801	0.333777
103	H	0.121686	0.812046	0.356007
104	H	0.03474	0.72383	0.337086
105	O	0.036423	0.821125	0.642124
106	H	0.032389	0.816582	0.609629
107	C	0.110087	0.740445	0.642634
108	C	0.140765	0.741089	0.640484
109	C	0.119281	0.755716	0.388819
110	C	0.099564	0.749353	0.349267
111	H	0.098102	0.738392	0.612765
112	N	0.110305	0.763091	0.42902
113	H	0.123801	0.767379	0.455999
114	H	0.088949	0.761762	0.432898
115	C	0.143029	0.90568	0.642526
116	C	0.113014	0.874986	0.640342
117	C	0.101646	0.853505	0.34473
118	C	0.119132	0.865829	0.385812
119	H	0.102754	0.866203	0.609265
120	H	0.111471	0.85061	0.41354
121	C	0.027555	0.765411	0.993284
122	C	0.047795	0.801164	0.991019
123	C	0.081336	0.81853	0.006067
124	C	0.096756	0.799796	0.68218
125	C	0.080445	0.765227	0.676914
126	C	0.04616	0.748801	0.667109
127	H	0.121686	0.812046	0.689339
128	H	0.03474	0.72383	0.67042
129	O	0.036423	0.821125	0.975459
130	H	0.032389	0.816582	0.942961
131	C	0.110087	0.740445	0.975965
132	C	0.140765	0.741089	0.973818
133	C	0.119281	0.755716	0.722154
134	C	0.099564	0.749353	0.682598
135	H	0.098102	0.738392	0.9461
136	N	0.110305	0.763091	0.762355
137	H	0.123801	0.767379	0.789334
138	H	0.088949	0.761762	0.766233
139	C	0.143029	0.90568	0.975861
140	C	0.113014	0.874986	0.973677
141	C	0.101646	0.853505	0.678062
142	C	0.119132	0.865829	0.719143
143	H	0.102754	0.866203	0.942596
144	H	0.111471	0.85061	0.746875
145	H	0.226962	0.198515	0.003728
146	C	0.214578	0.249737	0.324485
147	C	0.197191	0.265862	0.33966
148	C	0.215911	0.300001	0.0159
149	H	0.203628	0.31265	0.023027
150	O	0.194643	0.218444	0.308759
151	H	0.199248	0.219038	0.276271
152	C	0.215718	0.41905	0.015443
153	C	0.197442	0.435342	0.010177
154	C	0.215287	0.469633	0.000403
155	H	0.203052	0.394119	0.022563
156	H	0.201723	0.481043	0.003697
157	O	0.221654	0.033309	0.308755
158	H	0.222256	0.029318	0.276263
159	C	0.162203	0.251182	0.011573
160	C	0.149869	0.256321	0.052663
161	H	0.149575	0.239635	0.276082
162	H	0.165064	0.263849	0.080417
163	C	0.149091	0.396434	0.055356
164	C	0.162447	0.416192	0.015836
165	H	0.152961	0.417691	0.279341
166	N	0.165421	0.405389	0.095573
167	H	0.156215	0.39187	0.12253
168	H	0.185431	0.426759	0.099487
169	H	0.226962	0.198515	0.337061
170	C	0.214578	0.249737	0.657819
171	C	0.197191	0.265862	0.672992
172	C	0.215911	0.300001	0.349233
173	H	0.203628	0.31265	0.356362
174	O	0.194643	0.218444	0.64209
175	H	0.199248	0.219038	0.609606
176	C	0.215718	0.41905	0.348777
177	C	0.197442	0.435342	0.343508
178	C	0.215287	0.469633	0.333737
179	H	0.203052	0.394119	0.355896
180	H	0.201723	0.481043	0.337032
181	O	0.221654	0.033309	0.642087
182	H	0.222256	0.029318	0.609596
183	C	0.162203	0.251182	0.344906
184	C	0.149869	0.256321	0.385997
185	H	0.149575	0.239635	0.609417
186	H	0.165064	0.263849	0.41375
187	C	0.149091	0.396434	0.388691
188	C	0.162447	0.416192	0.349169
189	H	0.152961	0.417691	0.612674
190	N	0.165421	0.405389	0.428905
191	H	0.156215	0.39187	0.455864
192	H	0.185431	0.426759	0.432821
193	H	0.226962	0.198515	0.670393
194	C	0.214578	0.249737	0.991151
195	C	0.197191	0.265862	0.006326
196	C	0.215911	0.300001	0.682564
197	H	0.203628	0.31265	0.689693
198	O	0.194643	0.218444	0.975425
199	H	0.199248	0.219038	0.942937
200	C	0.215718	0.41905	0.682109
201	C	0.197442	0.435342	0.676843
202	C	0.215287	0.469633	0.667068
203	H	0.203052	0.394119	0.689231
204	H	0.201723	0.481043	0.670366
205	O	0.221654	0.033309	0.975422
206	H	0.222256	0.029318	0.942927
207	C	0.162203	0.251182	0.67824
208	C	0.149869	0.256321	0.719329
209	H	0.149575	0.239635	0.942748
210	H	0.165064	0.263849	0.747081
211	C	0.149091	0.396434	0.722022
212	C	0.162447	0.416192	0.6825
213	H	0.152961	0.417691	0.946009
214	N	0.165421	0.405389	0.76224
215	H	0.156215	0.39187	0.789196
216	H	0.185431	0.426759	0.766152
217	H	0.226962	0.698515	0.003728
218	C	0.214577	0.749735	0.324485
219	C	0.197191	0.765862	0.33966
220	C	0.215911	0.800001	0.0159
221	H	0.203626	0.812648	0.023027
222	O	0.194643	0.718444	0.308759
223	H	0.199248	0.719038	0.276271
224	C	0.215717	0.91905	0.015443
225	C	0.197442	0.935343	0.010177
226	C	0.215288	0.969634	0.000403
227	H	0.203051	0.894116	0.022563
228	H	0.201724	0.981043	0.003697
229	O	0.221653	0.533307	0.308755
230	H	0.222255	0.529316	0.276263
231	C	0.162203	0.751183	0.011573
232	C	0.149869	0.756321	0.052663
233	H	0.149575	0.739634	0.276082
234	H	0.165063	0.763849	0.080417
235	C	0.14909	0.896434	0.055356
236	C	0.162445	0.91619	0.015836
237	H	0.152961	0.917692	0.279341
238	N	0.165421	0.90539	0.095573
239	H	0.156214	0.891868	0.12253
240	H	0.18543	0.926756	0.099487
241	H	0.226962	0.698515	0.337061
242	C	0.214577	0.749735	0.657819
243	C	0.197191	0.765862	0.672992
244	C	0.215911	0.800001	0.349233
245	H	0.203626	0.812648	0.356362
246	O	0.194643	0.718444	0.64209
247	H	0.199248	0.719038	0.609606
248	C	0.215717	0.91905	0.348777
249	C	0.197442	0.935343	0.343508
250	C	0.215288	0.969634	0.333737
251	H	0.203051	0.894116	0.355896
252	H	0.201724	0.981043	0.337032
253	O	0.221653	0.533307	0.642087
254	H	0.222255	0.529316	0.609596
255	C	0.162203	0.751183	0.344906
256	C	0.149869	0.756321	0.385997
257	H	0.149575	0.739634	0.609417
258	H	0.165063	0.763849	0.41375
259	C	0.14909	0.896434	0.388691
260	C	0.162445	0.91619	0.349169
261	H	0.152961	0.917692	0.612674
262	N	0.165421	0.90539	0.428905
263	H	0.156214	0.891868	0.455864
264	H	0.18543	0.926756	0.432821
265	H	0.226962	0.698515	0.670393
266	C	0.214577	0.749735	0.991151
267	C	0.197191	0.765862	0.006326
268	C	0.215911	0.800001	0.682564
269	H	0.203626	0.812648	0.689693
270	O	0.194643	0.718444	0.975425
271	H	0.199248	0.719038	0.942937
272	C	0.215717	0.91905	0.682109
273	C	0.197442	0.935343	0.676843
274	C	0.215288	0.969634	0.667068
275	H	0.203051	0.894116	0.689231
276	H	0.201724	0.981043	0.670366
277	O	0.221653	0.533307	0.975422
278	H	0.222255	0.529316	0.942927
279	C	0.162203	0.751183	0.67824
280	C	0.149869	0.756321	0.719329
281	H	0.149575	0.739634	0.942748
282	H	0.165063	0.763849	0.747081
283	C	0.14909	0.896434	0.722022
284	C	0.162445	0.91619	0.6825
285	H	0.152961	0.917692	0.946009
286	N	0.165421	0.90539	0.76224
287	H	0.156214	0.891868	0.789196
288	H	0.18543	0.926756	0.766152
289	C	0.268544	0.247298	0.326692
290	C	0.251938	0.212081	0.000484
291	C	0.268369	0.194239	0.010365
292	C	0.302934	0.212515	0.015703
293	C	0.250331	0.265267	0.326752
294	C	0.25047	0.318299	0.01052
295	C	0.266911	0.300472	0.000626
296	H	0.291903	0.314073	0.003593
297	C	0.268475	0.024438	0.326697
298	C	0.303187	0.093556	0.01606
299	C	0.269063	0.078159	0.339721
300	C	0.252943	0.044661	0.324493
301	C	0.250504	0.488256	0.326597
302	C	0.266037	0.468037	0.324343
303	C	0.24989	0.434507	0.339427
304	O	0.297363	0.479417	0.308737
305	H	0.296827	0.483442	0.276243
306	C	0.275272	0.37273	0.309386
307	C	0.274734	0.402807	0.307103
308	C	0.264596	0.414231	0.011383
309	C	0.259342	0.396759	0.052512
310	C	0.259896	0.366751	0.05547
311	C	0.266285	0.353299	0.01602
312	H	0.277498	0.36278	0.279634
313	H	0.276295	0.413066	0.276
314	H	0.251737	0.404415	0.080197
315	N	0.252447	0.350461	0.095726
316	H	0.248295	0.359798	0.122675
317	H	0.25391	0.330517	0.099739
318	C	0.243575	0.139811	0.309358
319	C	0.244261	0.109798	0.307244
320	C	0.254387	0.098466	0.011663
321	C	0.259519	0.115965	0.052735
322	C	0.258886	0.145932	0.055573
323	C	0.252504	0.159229	0.015981
324	H	0.241518	0.149741	0.279491
325	H	0.242796	0.099521	0.27618
326	H	0.267056	0.108311	0.080492
327	N	0.266231	0.162276	0.095778
328	H	0.270521	0.153074	0.122759
329	H	0.264863	0.182281	0.099656
330	C	0.268544	0.247298	0.660024
331	C	0.251938	0.212081	0.333819
332	C	0.268369	0.194239	0.343697
333	C	0.302934	0.212515	0.349037
334	C	0.250331	0.265267	0.660084
335	C	0.25047	0.318299	0.343853
336	C	0.266911	0.300472	0.333959
337	H	0.291903	0.314073	0.336925
338	C	0.268475	0.024438	0.66003
339	C	0.303187	0.093556	0.349391
340	C	0.269063	0.078159	0.673053
341	C	0.252943	0.044661	0.657826
342	C	0.250504	0.488256	0.659929
343	C	0.266037	0.468037	0.657674
344	C	0.24989	0.434507	0.672762
345	O	0.297363	0.479417	0.64207
346	H	0.296827	0.483442	0.609575
347	C	0.275272	0.37273	0.642718
348	C	0.274734	0.402807	0.640436
349	C	0.264596	0.414231	0.344717
350	C	0.259342	0.396759	0.385846
351	C	0.259896	0.366751	0.388802
352	C	0.266285	0.353299	0.349354
353	H	0.277498	0.36278	0.612968
354	H	0.276295	0.413066	0.609332
355	H	0.251737	0.404415	0.41353
356	N	0.252447	0.350461	0.429057
357	H	0.248295	0.359798	0.456009
358	H	0.25391	0.330517	0.43307
359	C	0.243575	0.139811	0.642691
360	C	0.244261	0.109798	0.640578
361	C	0.254387	0.098466	0.344997
362	C	0.259519	0.115965	0.386068
363	C	0.258886	0.145932	0.388907
364	C	0.252504	0.159229	0.349314
365	H	0.241518	0.149741	0.612826
366	H	0.242796	0.099521	0.609515
367	H	0.267056	0.108311	0.413824
368	N	0.266231	0.162276	0.429111
369	H	0.270521	0.153074	0.45609
370	H	0.264863	0.182281	0.432989
371	C	0.268544	0.247298	0.993358
372	C	0.251938	0.212081	0.667152
373	C	0.268369	0.194239	0.677032
374	C	0.302934	0.212515	0.682369
375	C	0.250331	0.265267	0.993419
376	C	0.25047	0.318299	0.677187
377	C	0.266911	0.300472	0.667291
378	H	0.291903	0.314073	0.670258
379	C	0.268475	0.024438	0.993362
380	C	0.303187	0.093556	0.682726
381	C	0.269063	0.078159	0.006387
382	C	0.252943	0.044661	0.991158
383	C	0.250504	0.488256	0.993264
384	C	0.266037	0.468037	0.991009
385	C	0.24989	0.434507	0.006094
386	O	0.297363	0.479417	0.975401
387	H	0.296827	0.483442	0.94291
388	C	0.275272	0.37273	0.976053
389	C	0.274734	0.402807	0.973768
390	C	0.264596	0.414231	0.678048
391	C	0.259342	0.396759	0.719177
392	C	0.259896	0.366751	0.722137
393	C	0.266285	0.353299	0.682686
394	H	0.277498	0.36278	0.946299
395	H	0.276295	0.413066	0.942667
396	H	0.251737	0.404415	0.746862
397	N	0.252447	0.350461	0.762392
398	H	0.248295	0.359798	0.789341
399	H	0.25391	0.330517	0.766405
400	C	0.243575	0.139811	0.976023
401	C	0.244261	0.109798	0.97391
402	C	0.254387	0.098466	0.678328
403	C	0.259519	0.115965	0.7194
404	C	0.258886	0.145932	0.722238
405	C	0.252504	0.159229	0.682649
406	H	0.241518	0.149741	0.946157
407	H	0.242796	0.099521	0.942846
408	H	0.267056	0.108311	0.747159
409	N	0.266231	0.162276	0.762443
410	H	0.270521	0.153074	0.789425
411	H	0.264863	0.182281	0.766321
412	C	0.268543	0.747296	0.326692
413	C	0.251938	0.712081	0.000484
414	C	0.268369	0.694239	0.010365
415	C	0.302934	0.712514	0.015703
416	C	0.250331	0.765267	0.326752
417	C	0.250468	0.818297	0.01052
418	C	0.266911	0.800472	0.000626
419	H	0.291903	0.814073	0.003593
420	C	0.268475	0.524438	0.326697
421	C	0.303186	0.593555	0.01606
422	C	0.269063	0.57816	0.339721
423	C	0.252943	0.54466	0.324493
424	C	0.250503	0.988256	0.326597
425	C	0.266037	0.968037	0.324343
426	C	0.24989	0.934507	0.339427
427	O	0.297362	0.979417	0.308737
428	H	0.296827	0.983443	0.276243
429	C	0.275272	0.87273	0.309386
430	C	0.274734	0.902807	0.307103
431	C	0.264594	0.914229	0.011383
432	C	0.259341	0.896756	0.052512
433	C	0.259896	0.866751	0.05547
434	C	0.266284	0.853297	0.01602
435	H	0.277497	0.86278	0.279634
436	H	0.276295	0.913066	0.276
437	H	0.251735	0.904413	0.080197
438	N	0.252446	0.850458	0.095726
439	H	0.248295	0.859798	0.122675
440	H	0.253909	0.830515	0.099739
441	C	0.243575	0.639811	0.309358
442	C	0.244261	0.609798	0.307244
443	C	0.254386	0.598465	0.011663
444	C	0.259519	0.615965	0.052735
445	C	0.258885	0.645931	0.055573
446	C	0.252503	0.659229	0.015981
447	H	0.241518	0.649741	0.279491
448	H	0.242794	0.599519	0.27618
449	H	0.267055	0.608311	0.080492
450	N	0.266231	0.662275	0.095778
451	H	0.270521	0.653074	0.122759
452	H	0.264862	0.682281	0.099656
453	C	0.268543	0.747296	0.660024
454	C	0.251938	0.712081	0.333819
455	C	0.268369	0.694239	0.343697
456	C	0.302934	0.712514	0.349037
457	C	0.250331	0.765267	0.660084
458	C	0.250468	0.818297	0.343853
459	C	0.266911	0.800472	0.333959
460	H	0.291903	0.814073	0.336925
461	C	0.268475	0.524438	0.66003
462	C	0.303186	0.593555	0.349391
463	C	0.269063	0.57816	0.673053
464	C	0.252943	0.54466	0.657826
465	C	0.250503	0.988256	0.659929
466	C	0.266037	0.968037	0.657674
467	C	0.24989	0.934507	0.672762
468	O	0.297362	0.979417	0.64207
469	H	0.296827	0.983443	0.609575
470	C	0.275272	0.87273	0.642718
471	C	0.274734	0.902807	0.640436
472	C	0.264594	0.914229	0.344717
473	C	0.259341	0.896756	0.385846
474	C	0.259896	0.866751	0.388802
475	C	0.266284	0.853297	0.349354
476	H	0.277497	0.86278	0.612968
477	H	0.276295	0.913066	0.609332
478	H	0.251735	0.904413	0.41353
479	N	0.252446	0.850458	0.429057
480	H	0.248295	0.859798	0.456009
481	H	0.253909	0.830515	0.43307
482	C	0.243575	0.639811	0.642691
483	C	0.244261	0.609798	0.640578
484	C	0.254386	0.598465	0.344997
485	C	0.259519	0.615965	0.386068
486	C	0.258885	0.645931	0.388907
487	C	0.252503	0.659229	0.349314
488	H	0.241518	0.649741	0.612826
489	H	0.242794	0.599519	0.609515
490	H	0.267055	0.608311	0.413824
491	N	0.266231	0.662275	0.429111
492	H	0.270521	0.653074	0.45609
493	H	0.264862	0.682281	0.432989
494	C	0.268543	0.747296	0.993358
495	C	0.251938	0.712081	0.667152
496	C	0.268369	0.694239	0.677032
497	C	0.302934	0.712514	0.682369
498	C	0.250331	0.765267	0.993419
499	C	0.250468	0.818297	0.677187
500	C	0.266911	0.800472	0.667291
501	H	0.291903	0.814073	0.670258
502	C	0.268475	0.524438	0.993362
503	C	0.303186	0.593555	0.682726
504	C	0.269063	0.57816	0.006387
505	C	0.252943	0.54466	0.991158
506	C	0.250503	0.988256	0.993264
507	C	0.266037	0.968037	0.991009
508	C	0.24989	0.934507	0.006094
509	O	0.297362	0.979417	0.975401
510	H	0.296827	0.983443	0.94291
511	C	0.275272	0.87273	0.976053
512	C	0.274734	0.902807	0.973768
513	C	0.264594	0.914229	0.678048
514	C	0.259341	0.896756	0.719177
515	C	0.259896	0.866751	0.722137
516	C	0.266284	0.853297	0.682686
517	H	0.277497	0.86278	0.946299
518	H	0.276295	0.913066	0.942667
519	H	0.251735	0.904413	0.746862
520	N	0.252446	0.850458	0.762392
521	H	0.248295	0.859798	0.789341
522	H	0.253909	0.830515	0.766405
523	C	0.243575	0.639811	0.976023
524	C	0.244261	0.609798	0.97391
525	C	0.254386	0.598465	0.678328
526	C	0.259519	0.615965	0.7194
527	C	0.258885	0.645931	0.722238
528	C	0.252503	0.659229	0.682649
529	H	0.241518	0.649741	0.946157
530	H	0.242794	0.599519	0.942846
531	H	0.267055	0.608311	0.747159
532	N	0.266231	0.662275	0.762443
533	H	0.270521	0.653074	0.789425
534	H	0.264862	0.682281	0.766321
535	C	0.491376	0.247206	0.326741
536	C	0.472745	0.263782	0.000599
537	C	0.438521	0.247357	0.010783
538	C	0.4223	0.212807	0.016288
539	C	0.437693	0.194068	0.339967
540	C	0.471153	0.211448	0.324588
541	H	0.484115	0.28878	0.003468
542	H	0.397369	0.200525	0.023403
543	O	0.482486	0.191513	0.308779
544	H	0.48647	0.196132	0.27629
545	C	0.321669	0.246669	0.339569
546	C	0.304297	0.262823	0.32446
547	H	0.315184	0.199832	0.022808
548	O	0.324247	0.294139	0.308824
549	H	0.319678	0.293589	0.27633
550	C	0.303678	0.043061	0.000585
551	C	0.321494	0.077303	0.010652
552	H	0.317288	0.03168	0.003569
553	H	0.315838	0.118489	0.02317
554	C	0.408938	0.272309	0.309607
555	C	0.378286	0.271704	0.307377
556	C	0.356646	0.26137	0.011598
557	C	0.368876	0.256053	0.052681
558	C	0.399467	0.256668	0.055644
559	C	0.419285	0.263142	0.016138
560	H	0.421152	0.274621	0.279865
561	H	0.369621	0.27336	0.276294
562	H	0.353601	0.248382	0.080351
563	N	0.408325	0.249227	0.095895
564	H	0.394823	0.245041	0.12284
565	H	0.429768	0.250776	0.099923
566	C	0.376079	0.10691	0.309633
567	C	0.406161	0.137539	0.307527
568	C	0.417361	0.159073	0.011851
569	C	0.399806	0.146789	0.052908
570	C	0.369795	0.11622	0.055709
571	C	0.356507	0.096497	0.016113
572	H	0.366212	0.094762	0.279842
573	H	0.416524	0.146275	0.276487
574	H	0.407384	0.16201	0.080635
575	N	0.353417	0.107295	0.095899
576	H	0.362695	0.120734	0.122904
577	H	0.333491	0.085862	0.09982
578	C	0.491376	0.247206	0.660074
579	C	0.472745	0.263782	0.333934
580	C	0.438521	0.247357	0.344116
581	C	0.4223	0.212807	0.349621
582	C	0.437693	0.194068	0.673302
583	C	0.471153	0.211448	0.657921
584	H	0.484115	0.28878	0.3368
585	H	0.397369	0.200525	0.356736
586	O	0.482486	0.191513	0.64211
587	H	0.48647	0.196132	0.609623
588	C	0.321669	0.246669	0.672901
589	C	0.304297	0.262823	0.657792
590	H	0.315184	0.199832	0.356142
591	O	0.324247	0.294139	0.642158
592	H	0.319678	0.293589	0.609663
593	C	0.303678	0.043061	0.33392
594	C	0.321494	0.077303	0.343984
595	H	0.317288	0.03168	0.336904
596	H	0.315838	0.118489	0.356503
597	C	0.408938	0.272309	0.642941
598	C	0.378286	0.271704	0.64071
599	C	0.356646	0.26137	0.344933
600	C	0.368876	0.256053	0.386014
601	C	0.399467	0.256668	0.388978
602	C	0.419285	0.263142	0.349469
603	H	0.421152	0.274621	0.613197
604	H	0.369621	0.27336	0.609626
605	H	0.353601	0.248382	0.413682
606	N	0.408325	0.249227	0.429229
607	H	0.394823	0.245041	0.456175
608	H	0.429768	0.250776	0.433256
609	C	0.376079	0.10691	0.642964
610	C	0.406161	0.137539	0.640862
611	C	0.417361	0.159073	0.345186
612	C	0.399806	0.146789	0.38624
613	C	0.369795	0.11622	0.389042
614	C	0.356507	0.096497	0.349446
615	H	0.366212	0.094762	0.613173
616	H	0.416524	0.146275	0.609818
617	H	0.407384	0.16201	0.413969
618	N	0.353417	0.107295	0.429233
619	H	0.362695	0.120734	0.456236
620	H	0.333491	0.085862	0.433155
621	C	0.491376	0.247206	0.993406
622	C	0.472745	0.263782	0.667267
623	C	0.438521	0.247357	0.677451
624	C	0.4223	0.212807	0.682952
625	C	0.437693	0.194068	0.006635
626	C	0.471153	0.211448	0.991256
627	H	0.484115	0.28878	0.670133
628	H	0.397369	0.200525	0.690068
629	O	0.482486	0.191513	0.975445
630	H	0.48647	0.196132	0.942957
631	C	0.321669	0.246669	0.006235
632	C	0.304297	0.262823	0.991127
633	H	0.315184	0.199832	0.689474
634	O	0.324247	0.294139	0.975489
635	H	0.319678	0.293589	0.942995
636	C	0.303678	0.043061	0.667254
637	C	0.321494	0.077303	0.677319
638	H	0.317288	0.03168	0.670237
639	H	0.315838	0.118489	0.689835
640	C	0.408938	0.272309	0.976272
641	C	0.378286	0.271704	0.974041
642	C	0.356646	0.26137	0.678264
643	C	0.368876	0.256053	0.719346
644	C	0.399467	0.256668	0.722309
645	C	0.419285	0.263142	0.682804
646	H	0.421152	0.274621	0.946532
647	H	0.369621	0.27336	0.942961
648	H	0.353601	0.248382	0.747017
649	N	0.408325	0.249227	0.762561
650	H	0.394823	0.245041	0.789506
651	H	0.429768	0.250776	0.766591
652	C	0.376079	0.10691	0.976299
653	C	0.406161	0.137539	0.974193
654	C	0.417361	0.159073	0.678517
655	C	0.399806	0.146789	0.719575
656	C	0.369795	0.11622	0.722373
657	C	0.356507	0.096497	0.682777
658	H	0.366212	0.094762	0.946508
659	H	0.416524	0.146275	0.943153
660	H	0.407384	0.16201	0.747301
661	N	0.353417	0.107295	0.762564
662	H	0.362695	0.120734	0.78957
663	H	0.333491	0.085862	0.766486
664	C	0.491374	0.747204	0.326741
665	C	0.472745	0.763782	0.000599
666	C	0.438521	0.747356	0.010783
667	C	0.422301	0.712807	0.016288
668	C	0.437692	0.694068	0.339967
669	C	0.471154	0.711449	0.324588
670	H	0.484114	0.78878	0.003468
671	H	0.397369	0.700525	0.023403
672	O	0.482487	0.691512	0.308779
673	H	0.486471	0.696133	0.27629
674	C	0.321669	0.746669	0.339569
675	C	0.304297	0.762823	0.32446
676	H	0.315184	0.699831	0.022808
677	O	0.324246	0.794137	0.308824
678	H	0.319678	0.793589	0.27633
679	C	0.303678	0.543061	0.000585
680	C	0.321493	0.577302	0.010652
681	H	0.317287	0.531678	0.003569
682	H	0.315839	0.618489	0.02317
683	C	0.408938	0.772309	0.309607
684	C	0.378286	0.771704	0.307377
685	C	0.356646	0.76137	0.011598
686	C	0.368877	0.756053	0.052681
687	C	0.399466	0.756668	0.055644
688	C	0.419284	0.763143	0.016138
689	H	0.421151	0.774622	0.279865
690	H	0.36962	0.773357	0.276294
691	H	0.353601	0.748382	0.080351
692	N	0.408323	0.749225	0.095895
693	H	0.394823	0.74504	0.12284
694	H	0.429768	0.750776	0.099923
695	C	0.376079	0.606908	0.309633
696	C	0.406159	0.637538	0.307527
697	C	0.417362	0.659073	0.011851
698	C	0.399804	0.646788	0.052908
699	C	0.369796	0.616221	0.055709
700	C	0.356507	0.596495	0.016113
701	H	0.366212	0.594762	0.279842
702	H	0.416523	0.646275	0.276486
703	H	0.407384	0.66201	0.080635
704	N	0.353417	0.607295	0.095899
705	H	0.362693	0.620732	0.122904
706	H	0.33349	0.585861	0.09982
707	C	0.491374	0.747204	0.660074
708	C	0.472745	0.763782	0.333934
709	C	0.438521	0.747356	0.344116
710	C	0.422301	0.712807	0.349621
711	C	0.437692	0.694068	0.673302
712	C	0.471154	0.711449	0.657921
713	H	0.484114	0.78878	0.3368
714	H	0.397369	0.700525	0.356736
715	O	0.482487	0.691512	0.64211
716	H	0.486471	0.696133	0.609623
717	C	0.321669	0.746669	0.672901
718	C	0.304297	0.762823	0.657792
719	H	0.315184	0.699831	0.356142
720	O	0.324246	0.794137	0.642158
721	H	0.319678	0.793589	0.609663
722	C	0.303678	0.543061	0.33392
723	C	0.321493	0.577302	0.343984
724	H	0.317287	0.531678	0.336904
725	H	0.315839	0.618489	0.356503
726	C	0.408938	0.772309	0.642941
727	C	0.378286	0.771704	0.64071
728	C	0.356646	0.76137	0.344933
729	C	0.368877	0.756053	0.386014
730	C	0.399466	0.756668	0.388978
731	C	0.419284	0.763143	0.349469
732	H	0.421151	0.774622	0.613197
733	H	0.36962	0.773357	0.609626
734	H	0.353601	0.748382	0.413682
735	N	0.408323	0.749225	0.429229
736	H	0.394823	0.74504	0.456175
737	H	0.429768	0.750776	0.433256
738	C	0.376079	0.606908	0.642964
739	C	0.406159	0.637538	0.640862
740	C	0.417362	0.659073	0.345186
741	C	0.399804	0.646788	0.38624
742	C	0.369796	0.616221	0.389042
743	C	0.356507	0.596495	0.349446
744	H	0.366212	0.594762	0.613173
745	H	0.416523	0.646275	0.609818
746	H	0.407384	0.66201	0.413969
747	N	0.353417	0.607295	0.429233
748	H	0.362693	0.620732	0.456236
749	H	0.33349	0.585861	0.433151
750	C	0.491374	0.747204	0.993406
751	C	0.472745	0.763782	0.667267
752	C	0.438521	0.747356	0.677451
753	C	0.422301	0.712807	0.682952
754	C	0.437692	0.694068	0.006635
755	C	0.471154	0.711449	0.991256
756	H	0.484114	0.78878	0.670133
757	H	0.397369	0.700525	0.690068
758	O	0.482487	0.691512	0.975445
759	H	0.486471	0.696133	0.942957
760	C	0.321669	0.746669	0.006235
761	C	0.304297	0.762823	0.991127
762	H	0.315184	0.699831	0.689474
763	O	0.324246	0.794137	0.975489
764	H	0.319678	0.793589	0.942995
765	C	0.303678	0.543061	0.667254
766	C	0.321493	0.577302	0.677319
767	H	0.317287	0.531678	0.670237
768	H	0.315839	0.618489	0.689835
769	C	0.408938	0.772309	0.976272
770	C	0.378286	0.771704	0.974041
771	C	0.356646	0.76137	0.678264
772	C	0.368877	0.756053	0.719346
773	C	0.399466	0.756668	0.722309
774	C	0.419284	0.763143	0.682804
775	H	0.421151	0.774622	0.946532
776	H	0.36962	0.773357	0.942961
777	H	0.353601	0.748382	0.747017
778	N	0.408323	0.749225	0.762561
779	H	0.394823	0.74504	0.789506
780	H	0.429768	0.750776	0.766591
781	C	0.376079	0.606908	0.976299
782	C	0.406159	0.637538	0.974193
783	C	0.417362	0.659073	0.678517
784	C	0.399804	0.646788	0.719575
785	C	0.369796	0.616221	0.722373
786	C	0.356507	0.596495	0.682777
787	H	0.366212	0.594762	0.946508
788	H	0.416523	0.646275	0.943153
789	H	0.407384	0.66201	0.747301
790	N	0.353417	0.607295	0.762564
791	H	0.362693	0.620732	0.78957
792	H	0.33349	0.585861	0.766486
793	C	0.991376	0.247206	0.326741
794	C	0.972747	0.263782	0.000599
795	C	0.938521	0.247357	0.010783
796	C	0.922302	0.212807	0.016288
797	C	0.937693	0.194068	0.339967
798	C	0.971155	0.211448	0.324588
799	H	0.984115	0.28878	0.003468
800	H	0.897369	0.200525	0.023403
801	C	0.527557	0.265413	0.326617
802	C	0.547796	0.301164	0.324353
803	C	0.581337	0.31853	0.3394
804	C	0.596759	0.299798	0.015513
805	C	0.580447	0.265229	0.010247
806	C	0.54616	0.248803	0.000443
807	H	0.621685	0.312045	0.022673
808	H	0.534741	0.22383	0.003751
809	O	0.982488	0.191513	0.308779
810	O	0.536425	0.321127	0.308792
811	H	0.986472	0.196132	0.27629
812	H	0.53239	0.316581	0.276296
813	C	0.768543	0.247298	0.326692
814	C	0.751938	0.212081	0.000484
815	C	0.76837	0.194239	0.010365
816	C	0.802934	0.212515	0.015703
817	C	0.82167	0.246669	0.339569
818	C	0.804298	0.262823	0.32446
819	H	0.726962	0.198515	0.003728
820	H	0.815184	0.199832	0.022808
821	C	0.750332	0.265267	0.326752
822	C	0.714579	0.249737	0.324485
823	C	0.697191	0.265862	0.33966
824	C	0.715911	0.300001	0.0159
825	C	0.75047	0.318299	0.01052
826	C	0.766911	0.300472	0.000626
827	H	0.703629	0.31265	0.023027
828	H	0.791904	0.314073	0.003593
829	O	0.824248	0.294139	0.308824
830	O	0.694643	0.218444	0.308759
831	H	0.819679	0.293589	0.27633
832	H	0.699249	0.219038	0.276271
833	C	0.768475	0.024438	0.326697
834	C	0.803678	0.043061	0.000585
835	C	0.821494	0.077303	0.010652
836	C	0.803187	0.093556	0.01606
837	C	0.769063	0.078159	0.339721
838	C	0.752945	0.044661	0.324493
839	H	0.81729	0.03168	0.003569
840	H	0.81584	0.118489	0.02317
841	C	0.750504	0.488256	0.326597
842	C	0.766038	0.468037	0.324343
843	C	0.749891	0.434507	0.339427
844	C	0.715718	0.41905	0.015443
845	C	0.697443	0.435342	0.010177
846	C	0.715289	0.469633	0.000403
847	H	0.703053	0.394119	0.022563
848	H	0.701723	0.481043	0.003697
849	O	0.721655	0.033309	0.308755
850	O	0.797363	0.479417	0.308737
851	H	0.722257	0.029318	0.276263
852	H	0.796828	0.483442	0.276243
853	C	0.610088	0.240444	0.309301
854	C	0.640767	0.241091	0.307151
855	C	0.662205	0.251182	0.011573
856	C	0.64987	0.256321	0.052663
857	C	0.619282	0.255716	0.055487
858	C	0.599565	0.249353	0.015933
859	H	0.598103	0.238393	0.279433
860	H	0.649577	0.239635	0.276082
861	H	0.665064	0.263849	0.080417
862	N	0.610306	0.26309	0.095688
863	H	0.6238	0.267379	0.122667
864	H	0.58895	0.261762	0.099566
865	C	0.775273	0.37273	0.309386
866	C	0.774735	0.402807	0.307103
867	C	0.764596	0.414231	0.011383
868	C	0.759342	0.396759	0.052512
869	C	0.759897	0.366751	0.05547
870	C	0.766285	0.353299	0.01602
871	H	0.777498	0.36278	0.279634
872	H	0.776295	0.413066	0.276
873	H	0.751737	0.404415	0.080197
874	N	0.752448	0.350461	0.095726
875	H	0.748296	0.359798	0.122675
876	H	0.753911	0.330517	0.099739
877	C	0.64303	0.405679	0.309193
878	C	0.613015	0.374985	0.30701
879	C	0.601647	0.353505	0.011396
880	C	0.619133	0.365829	0.052479
881	C	0.649091	0.396434	0.055356
882	C	0.662447	0.416192	0.015836
883	H	0.652962	0.417691	0.279341
884	H	0.602754	0.366206	0.275931
885	H	0.611473	0.350612	0.080209
886	N	0.665422	0.405389	0.095573
887	H	0.656216	0.39187	0.12253
888	H	0.685432	0.426759	0.099487
889	C	0.90894	0.272309	0.309607
890	C	0.878286	0.271704	0.307377
891	C	0.856646	0.26137	0.011598
892	C	0.868879	0.256053	0.052681
893	C	0.899467	0.256668	0.055644
894	C	0.919285	0.263142	0.016138
895	H	0.921152	0.274621	0.279865
896	H	0.869621	0.27336	0.276294
897	H	0.853601	0.248382	0.080351
898	N	0.908325	0.249227	0.095895
899	H	0.894823	0.245041	0.12284
900	H	0.929768	0.250776	0.099923
901	C	0.743576	0.139811	0.309358
902	C	0.744261	0.109798	0.307244
903	C	0.754386	0.098466	0.011663
904	C	0.759519	0.115965	0.052735
905	C	0.758887	0.145932	0.055573
906	C	0.752504	0.159229	0.015981
907	H	0.741519	0.149741	0.279491
908	H	0.742796	0.099521	0.27618
909	H	0.767056	0.108311	0.080492
910	N	0.766231	0.162276	0.095778
911	H	0.770521	0.153074	0.122759
912	H	0.764863	0.182281	0.099656
913	C	0.876079	0.10691	0.309633
914	C	0.906161	0.137539	0.307527
915	C	0.917361	0.159073	0.011851
916	C	0.899806	0.146789	0.052908
917	C	0.869797	0.11622	0.055709
918	C	0.856509	0.096497	0.016113
919	H	0.866212	0.094762	0.279842
920	H	0.916524	0.146275	0.276487
921	H	0.907384	0.16201	0.080635
922	N	0.853417	0.107295	0.095899
923	H	0.862695	0.120734	0.122904
924	H	0.833491	0.085862	0.09982
925	C	0.991376	0.247206	0.660074
926	C	0.972747	0.263782	0.333934
927	C	0.938521	0.247357	0.344116
928	C	0.922302	0.212807	0.349621
929	C	0.937693	0.194068	0.673302
930	C	0.971155	0.211448	0.657921
931	H	0.984115	0.28878	0.3368
932	H	0.897369	0.200525	0.356736
933	C	0.527557	0.265413	0.659949
934	C	0.547796	0.301164	0.657684
935	C	0.581337	0.31853	0.672732
936	C	0.596759	0.299798	0.348848
937	C	0.580447	0.265229	0.343579
938	C	0.54616	0.248803	0.333777
939	H	0.621685	0.312045	0.356007
940	H	0.534741	0.22383	0.337086
941	O	0.982488	0.191513	0.64211
942	O	0.536425	0.321127	0.642124
943	H	0.986472	0.196132	0.609623
944	H	0.53239	0.316581	0.609629
945	C	0.768543	0.247298	0.660024
946	C	0.751938	0.212081	0.333819
947	C	0.76837	0.194239	0.343697
948	C	0.802934	0.212515	0.349037
949	C	0.82167	0.246669	0.672901
950	C	0.804298	0.262823	0.657792
951	H	0.726962	0.198515	0.337061
952	H	0.815184	0.199832	0.356142
953	C	0.750332	0.265267	0.660084
954	C	0.714579	0.249737	0.657819
955	C	0.697191	0.265862	0.672992
956	C	0.715911	0.300001	0.349233
957	C	0.75047	0.318299	0.343853
958	C	0.766911	0.300472	0.333959
959	H	0.703629	0.31265	0.356362
960	H	0.791904	0.314073	0.336925
961	O	0.824248	0.294139	0.642158
962	O	0.694643	0.218444	0.64209
963	H	0.819679	0.293589	0.609663
964	H	0.699249	0.219038	0.609606
965	C	0.768475	0.024438	0.66003
966	C	0.803678	0.043061	0.33392
967	C	0.821494	0.077303	0.343984
968	C	0.803187	0.093556	0.349391
969	C	0.769063	0.078159	0.673053
970	C	0.752945	0.044661	0.657826
971	H	0.81729	0.03168	0.336904
972	H	0.81584	0.118489	0.356503
973	C	0.750504	0.488256	0.659929
974	C	0.766038	0.468037	0.657674
975	C	0.749891	0.434507	0.672762
976	C	0.715718	0.41905	0.348777
977	C	0.697443	0.435342	0.343508
978	C	0.715289	0.469633	0.333737
979	H	0.703053	0.394119	0.355896
980	H	0.701723	0.481043	0.337032
981	O	0.721655	0.033309	0.642087
982	O	0.797363	0.479417	0.64207
983	H	0.722257	0.029318	0.609596
984	H	0.796828	0.483442	0.609575
985	C	0.610088	0.240444	0.642634
986	C	0.640767	0.241091	0.640484
987	C	0.662205	0.251182	0.344906
988	C	0.64987	0.256321	0.385997
989	C	0.619282	0.255716	0.388819
990	C	0.599565	0.249353	0.349267
991	H	0.598103	0.238393	0.612765
992	H	0.649577	0.239635	0.609417
993	H	0.665064	0.263849	0.41375
994	N	0.610306	0.26309	0.42902
995	H	0.6238	0.267379	0.455999
996	H	0.58895	0.261762	0.432898
997	C	0.775273	0.37273	0.642718
998	C	0.774735	0.402807	0.640436
999	C	0.764596	0.414231	0.344717
1000	C	0.759342	0.396759	0.385846
1001	C	0.759897	0.366751	0.388802
1002	C	0.766285	0.353299	0.349354
1003	H	0.777498	0.36278	0.612968
1004	H	0.776295	0.413066	0.609332
1005	H	0.751737	0.404415	0.41353
1006	N	0.752448	0.350461	0.429057
1007	H	0.748296	0.359798	0.456009
1008	H	0.753911	0.330517	0.43307
1009	C	0.64303	0.405679	0.642526
1010	C	0.613015	0.374985	0.640342
1011	C	0.601647	0.353505	0.34473
1012	C	0.619133	0.365829	0.385812
1013	C	0.649091	0.396434	0.388691
1014	C	0.662447	0.416192	0.349169
1015	H	0.652962	0.417691	0.612674
1016	H	0.602754	0.366206	0.609265
1017	H	0.611473	0.350612	0.41354
1018	N	0.665422	0.405389	0.428905
1019	H	0.656216	0.39187	0.455864
1020	H	0.685432	0.426759	0.432821
1021	C	0.90894	0.272309	0.642941
1022	C	0.878286	0.271704	0.64071
1023	C	0.856646	0.26137	0.344933
1024	C	0.868879	0.256053	0.386014
1025	C	0.899467	0.256668	0.388978
1026	C	0.919285	0.263142	0.349469
1027	H	0.921152	0.274621	0.613197
1028	H	0.869621	0.27336	0.609626
1029	H	0.853601	0.248382	0.413682
1030	N	0.908325	0.249227	0.429229
1031	H	0.894823	0.245041	0.456175
1032	H	0.929768	0.250776	0.433256
1033	C	0.743576	0.139811	0.642691
1034	C	0.744261	0.109798	0.640578
1035	C	0.754386	0.098466	0.344997
1036	C	0.759519	0.115965	0.386068
1037	C	0.758887	0.145932	0.388907
1038	C	0.752504	0.159229	0.349314
1039	H	0.741519	0.149741	0.612826
1040	H	0.742796	0.099521	0.609515
1041	H	0.767056	0.108311	0.413824
1042	N	0.766231	0.162276	0.429111
1043	H	0.770521	0.153074	0.45609
1044	H	0.764863	0.182281	0.432989
1045	C	0.876079	0.10691	0.642964
1046	C	0.906161	0.137539	0.640862
1047	C	0.917361	0.159073	0.345186
1048	C	0.899806	0.146789	0.38624
1049	C	0.869797	0.11622	0.389042
1050	C	0.856509	0.096497	0.349446
1051	H	0.866212	0.094762	0.613173
1052	H	0.916524	0.146275	0.609818
1053	H	0.907384	0.16201	0.413969
1054	N	0.853417	0.107295	0.429233
1055	H	0.862695	0.120734	0.456236
1056	H	0.833491	0.085862	0.433155
1057	C	0.991376	0.247206	0.993406
1058	C	0.972747	0.263782	0.667267
1059	C	0.938521	0.247357	0.677451
1060	C	0.922302	0.212807	0.682952
1061	C	0.937693	0.194068	0.006635
1062	C	0.971155	0.211448	0.991256
1063	H	0.984115	0.28878	0.670133
1064	H	0.897369	0.200525	0.690068
1065	C	0.527557	0.265413	0.993284
1066	C	0.547796	0.301164	0.991019
1067	C	0.581337	0.31853	0.006067
1068	C	0.596759	0.299798	0.68218
1069	C	0.580447	0.265229	0.676914
1070	C	0.54616	0.248803	0.667109
1071	H	0.621685	0.312045	0.689339
1072	H	0.534741	0.22383	0.67042
1073	O	0.982488	0.191513	0.975445
1074	O	0.536425	0.321127	0.975459
1075	H	0.986472	0.196132	0.942957
1076	H	0.53239	0.316581	0.942961
1077	C	0.768543	0.247298	0.993358
1078	C	0.751938	0.212081	0.667152
1079	C	0.76837	0.194239	0.677032
1080	C	0.802934	0.212515	0.682369
1081	C	0.82167	0.246669	0.006235
1082	C	0.804298	0.262823	0.991127
1083	H	0.726962	0.198515	0.670393
1084	H	0.815184	0.199832	0.689474
1085	C	0.750332	0.265267	0.993419
1086	C	0.714579	0.249737	0.991151
1087	C	0.697191	0.265862	0.006326
1088	C	0.715911	0.300001	0.682564
1089	C	0.75047	0.318299	0.677187
1090	C	0.766911	0.300472	0.667291
1091	H	0.703629	0.31265	0.689693
1092	H	0.791904	0.314073	0.670258
1093	O	0.824248	0.294139	0.975489
1094	O	0.694643	0.218444	0.975425
1095	H	0.819679	0.293589	0.942995
1096	H	0.699249	0.219038	0.942937
1097	C	0.768475	0.024438	0.993362
1098	C	0.803678	0.043061	0.667254
1099	C	0.821494	0.077303	0.677319
1100	C	0.803187	0.093556	0.682726
1101	C	0.769063	0.078159	0.006387
1102	C	0.752945	0.044661	0.991158
1103	H	0.81729	0.03168	0.670237
1104	H	0.81584	0.118489	0.689835
1105	C	0.750504	0.488256	0.993264
1106	C	0.766038	0.468037	0.991009
1107	C	0.749891	0.434507	0.006094
1108	C	0.715718	0.41905	0.682109
1109	C	0.697443	0.435342	0.676843
1110	C	0.715289	0.469633	0.667068
1111	H	0.703053	0.394119	0.689231
1112	H	0.701723	0.481043	0.670366
1113	O	0.721655	0.033309	0.975422
1114	O	0.797363	0.479417	0.975401
1115	H	0.722257	0.029318	0.942927
1116	H	0.796828	0.483442	0.94291
1117	C	0.610088	0.240444	0.975965
1118	C	0.640767	0.241091	0.973818
1119	C	0.662205	0.251182	0.67824
1120	C	0.64987	0.256321	0.719329
1121	C	0.619282	0.255716	0.722154
1122	C	0.599565	0.249353	0.682598
1123	H	0.598103	0.238393	0.9461
1124	H	0.649577	0.239635	0.942748
1125	H	0.665064	0.263849	0.747081
1126	N	0.610306	0.26309	0.762355
1127	H	0.6238	0.267379	0.789334
1128	H	0.58895	0.261762	0.766233
1129	C	0.775273	0.37273	0.976053
1130	C	0.774735	0.402807	0.973768
1131	C	0.764596	0.414231	0.678048
1132	C	0.759342	0.396759	0.719177
1133	C	0.759897	0.366751	0.722137
1134	C	0.766285	0.353299	0.682686
1135	H	0.777498	0.36278	0.946299
1136	H	0.776295	0.413066	0.942667
1137	H	0.751737	0.404415	0.746862
1138	N	0.752448	0.350461	0.762392
1139	H	0.748296	0.359798	0.789341
1140	H	0.753911	0.330517	0.766405
1141	C	0.64303	0.405679	0.975861
1142	C	0.613015	0.374985	0.973677
1143	C	0.601647	0.353505	0.678062
1144	C	0.619133	0.365829	0.719143
1145	C	0.649091	0.396434	0.722022
1146	C	0.662447	0.416192	0.6825
1147	H	0.652962	0.417691	0.946009
1148	H	0.602754	0.366206	0.942596
1149	H	0.611473	0.350612	0.746875
1150	N	0.665422	0.405389	0.76224
1151	H	0.656216	0.39187	0.789196
1152	H	0.685432	0.426759	0.766152
1153	C	0.90894	0.272309	0.976272
1154	C	0.878286	0.271704	0.974041
1155	C	0.856646	0.26137	0.678264
1156	C	0.868879	0.256053	0.719346
1157	C	0.899467	0.256668	0.722309
1158	C	0.919285	0.263142	0.682804
1159	H	0.921152	0.274621	0.946532
1160	H	0.869621	0.27336	0.942961
1161	H	0.853601	0.248382	0.747017
1162	N	0.908325	0.249227	0.762561
1163	H	0.894823	0.245041	0.789506
1164	H	0.929768	0.250776	0.766591
1165	C	0.743576	0.139811	0.976023
1166	C	0.744261	0.109798	0.97391
1167	C	0.754386	0.098466	0.678328
1168	C	0.759519	0.115965	0.7194
1169	C	0.758887	0.145932	0.722238
1170	C	0.752504	0.159229	0.682649
1171	H	0.741519	0.149741	0.946157
1172	H	0.742796	0.099521	0.942846
1173	H	0.767056	0.108311	0.747159
1174	N	0.766231	0.162276	0.762443
1175	H	0.770521	0.153074	0.789425
1176	H	0.764863	0.182281	0.766321
1177	C	0.876079	0.10691	0.976299
1178	C	0.906161	0.137539	0.974193
1179	C	0.917361	0.159073	0.678517
1180	C	0.899806	0.146789	0.719575
1181	C	0.869797	0.11622	0.722373
1182	C	0.856509	0.096497	0.682777
1183	H	0.866212	0.094762	0.946508
1184	H	0.916524	0.146275	0.943153
1185	H	0.907384	0.16201	0.747301
1186	N	0.853417	0.107295	0.762564
1187	H	0.862695	0.120734	0.78957
1188	H	0.833491	0.085862	0.766486
1189	C	0.991374	0.747204	0.326741
1190	C	0.972746	0.763782	0.000599
1191	C	0.938522	0.747356	0.010783
1192	C	0.922301	0.712807	0.016288
1193	C	0.937693	0.694068	0.339967
1194	C	0.971154	0.711449	0.324588
1195	H	0.984114	0.78878	0.003468
1196	H	0.897371	0.700525	0.023403
1197	C	0.527555	0.765411	0.326617
1198	C	0.547795	0.801164	0.324353
1199	C	0.581338	0.81853	0.3394
1200	C	0.596757	0.799796	0.015513
1201	C	0.580445	0.765227	0.010247
1202	C	0.54616	0.748801	0.000443
1203	H	0.621686	0.812046	0.022673
1204	H	0.53474	0.72383	0.003751
1205	O	0.982487	0.691512	0.308779
1206	O	0.536424	0.821125	0.308792
1207	H	0.986472	0.696133	0.27629
1208	H	0.532389	0.816582	0.276296
1209	C	0.768544	0.747296	0.326692
1210	C	0.751939	0.712081	0.000484
1211	C	0.76837	0.694239	0.010365
1212	C	0.802934	0.712514	0.015703
1213	C	0.821669	0.746669	0.339569
1214	C	0.804297	0.762823	0.32446
1215	H	0.726963	0.698515	0.003728
1216	H	0.815185	0.699831	0.022808
1217	C	0.750331	0.765267	0.326752
1218	C	0.714577	0.749735	0.324485
1219	C	0.697192	0.765862	0.33966
1220	C	0.71591	0.800001	0.0159
1221	C	0.750468	0.818297	0.01052
1222	C	0.766912	0.800472	0.000626
1223	H	0.703626	0.812648	0.023027
1224	H	0.791903	0.814073	0.003593
1225	O	0.824248	0.794137	0.308824
1226	O	0.694642	0.718444	0.308759
1227	H	0.819678	0.793589	0.27633
1228	H	0.699248	0.719038	0.276271
1229	C	0.768477	0.524438	0.326697
1230	C	0.803679	0.543061	0.000585
1231	C	0.821493	0.577302	0.010652
1232	C	0.803187	0.593555	0.01606
1233	C	0.769064	0.57816	0.339721
1234	C	0.752943	0.54466	0.324493
1235	H	0.817288	0.531678	0.003569
1236	H	0.815839	0.618489	0.02317
1237	C	0.750505	0.988256	0.326597
1238	C	0.766037	0.968037	0.324343
1239	C	0.74989	0.934507	0.339427
1240	C	0.715719	0.91905	0.015443
1241	C	0.697442	0.935343	0.010177
1242	C	0.715288	0.969634	0.000403
1243	H	0.703051	0.894116	0.022563
1244	H	0.701724	0.981043	0.003697
1245	O	0.721653	0.533307	0.308755
1246	O	0.797362	0.979417	0.308737
1247	H	0.722255	0.529316	0.276263
1248	H	0.796827	0.983443	0.276243
1249	C	0.610087	0.740445	0.309301
1250	C	0.640765	0.741089	0.307151
1251	C	0.662204	0.751183	0.011573
1252	C	0.649871	0.756321	0.052663
1253	C	0.619283	0.755716	0.055487
1254	C	0.599566	0.749353	0.015933
1255	H	0.598102	0.738392	0.279433
1256	H	0.649575	0.739634	0.276082
1257	H	0.665063	0.763849	0.080417
1258	N	0.610305	0.763091	0.095688
1259	H	0.623801	0.767379	0.122667
1260	H	0.58895	0.761762	0.099566
1261	C	0.775272	0.87273	0.309386
1262	C	0.774734	0.902807	0.307103
1263	C	0.764594	0.914229	0.011383
1264	C	0.759342	0.896756	0.052512
1265	C	0.759896	0.866751	0.05547
1266	C	0.766285	0.853297	0.01602
1267	H	0.777499	0.86278	0.279634
1268	H	0.776296	0.913066	0.276
1269	H	0.751735	0.904413	0.080197
1270	N	0.752445	0.850458	0.095726
1271	H	0.748295	0.859798	0.122675
1272	H	0.753909	0.830515	0.099739
1273	C	0.643029	0.90568	0.309193
1274	C	0.613015	0.874986	0.30701
1275	C	0.601647	0.853505	0.011396
1276	C	0.619132	0.865829	0.052479
1277	C	0.649091	0.896434	0.055356
1278	C	0.662446	0.91619	0.015836
1279	H	0.652961	0.917692	0.279341
1280	H	0.602753	0.866203	0.275931
1281	H	0.611471	0.85061	0.080209
1282	N	0.665421	0.90539	0.095573
1283	H	0.656214	0.891868	0.12253
1284	H	0.68543	0.926756	0.099487
1285	C	0.908939	0.772309	0.309607
1286	C	0.878287	0.771704	0.307377
1287	C	0.856647	0.76137	0.011598
1288	C	0.868878	0.756053	0.052681
1289	C	0.899468	0.756668	0.055644
1290	C	0.919284	0.763143	0.016138
1291	H	0.921151	0.774622	0.279865
1292	H	0.869621	0.773357	0.276294
1293	H	0.853602	0.748382	0.080351
1294	N	0.908323	0.749225	0.095895
1295	H	0.894824	0.74504	0.12284
1296	H	0.929769	0.750776	0.099923
1297	C	0.743575	0.639811	0.309358
1298	C	0.744263	0.609798	0.307244
1299	C	0.754387	0.598465	0.011663
1300	C	0.75952	0.615965	0.052735
1301	C	0.758886	0.645931	0.055573
1302	C	0.752505	0.659229	0.015981
1303	H	0.741518	0.649741	0.279491
1304	H	0.742796	0.599519	0.27618
1305	H	0.767055	0.608311	0.080492
1306	N	0.766232	0.662275	0.095778
1307	H	0.770523	0.653074	0.122759
1308	H	0.764864	0.682281	0.099656
1309	C	0.876079	0.606908	0.309633
1310	C	0.906159	0.637538	0.307527
1311	C	0.917362	0.659073	0.011851
1312	C	0.899804	0.646788	0.052908
1313	C	0.869796	0.616221	0.055709
1314	C	0.856508	0.596495	0.016113
1315	H	0.866213	0.594762	0.279842
1316	H	0.916523	0.646275	0.276486
1317	H	0.907385	0.66201	0.080635
1318	N	0.853417	0.607295	0.095899
1319	H	0.862695	0.620732	0.122904
1320	H	0.833492	0.585861	0.09982
1321	C	0.991374	0.747204	0.660074
1322	C	0.972746	0.763782	0.333934
1323	C	0.938522	0.747356	0.344116
1324	C	0.922301	0.712807	0.349621
1325	C	0.937693	0.694068	0.673302
1326	C	0.971154	0.711449	0.657921
1327	H	0.984114	0.78878	0.3368
1328	H	0.897371	0.700525	0.356736
1329	C	0.527555	0.765411	0.659949
1330	C	0.547795	0.801164	0.657684
1331	C	0.581338	0.81853	0.672732
1332	C	0.596757	0.799796	0.348848
1333	C	0.580445	0.765227	0.343579
1334	C	0.54616	0.748801	0.333777
1335	H	0.621686	0.812046	0.356007
1336	H	0.53474	0.72383	0.337086
1337	O	0.982487	0.691512	0.64211
1338	O	0.536424	0.821125	0.642124
1339	H	0.986472	0.696133	0.609623
1340	H	0.532389	0.816582	0.609629
1341	C	0.768544	0.747296	0.660024
1342	C	0.751939	0.712081	0.333819
1343	C	0.76837	0.694239	0.343697
1344	C	0.802934	0.712514	0.349037
1345	C	0.821669	0.746669	0.672901
1346	C	0.804297	0.762823	0.657792
1347	H	0.726963	0.698515	0.337061
1348	H	0.815185	0.699831	0.356142
1349	C	0.750331	0.765267	0.660084
1350	C	0.714577	0.749735	0.657819
1351	C	0.697192	0.765862	0.672992
1352	C	0.71591	0.800001	0.349233
1353	C	0.750468	0.818297	0.343853
1354	C	0.766912	0.800472	0.333959
1355	H	0.703626	0.812648	0.356362
1356	H	0.791903	0.814073	0.336925
1357	O	0.824248	0.794137	0.642158
1358	O	0.694642	0.718444	0.64209
1359	H	0.819678	0.793589	0.609663
1360	H	0.699248	0.719038	0.609606
1361	C	0.768477	0.524438	0.66003
1362	C	0.803679	0.543061	0.33392
1363	C	0.821493	0.577302	0.343984
1364	C	0.803187	0.593555	0.349391
1365	C	0.769064	0.57816	0.673053
1366	C	0.752943	0.54466	0.657826
1367	H	0.817288	0.531678	0.336904
1368	H	0.815839	0.618489	0.356503
1369	C	0.750505	0.988256	0.659929
1370	C	0.766037	0.968037	0.657674
1371	C	0.74989	0.934507	0.672762
1372	C	0.715719	0.91905	0.348777
1373	C	0.697442	0.935343	0.343508
1374	C	0.715288	0.969634	0.333737
1375	H	0.703051	0.894116	0.355896
1376	H	0.701724	0.981043	0.337032
1377	O	0.721653	0.533307	0.642087
1378	O	0.797362	0.979417	0.64207
1379	H	0.722255	0.529316	0.609596
1380	H	0.796827	0.983443	0.609575
1381	C	0.610087	0.740445	0.642634
1382	C	0.640765	0.741089	0.640484
1383	C	0.662204	0.751183	0.344906
1384	C	0.649871	0.756321	0.385997
1385	C	0.619283	0.755716	0.388819
1386	C	0.599566	0.749353	0.349267
1387	H	0.598102	0.738392	0.612765
1388	H	0.649575	0.739634	0.609417
1389	H	0.665063	0.763849	0.41375
1390	N	0.610305	0.763091	0.42902
1391	H	0.623801	0.767379	0.455999
1392	H	0.58895	0.761762	0.432898
1393	C	0.775272	0.87273	0.642718
1394	C	0.774734	0.902807	0.640436
1395	C	0.764594	0.914229	0.344717
1396	C	0.759342	0.896756	0.385846
1397	C	0.759896	0.866751	0.388802
1398	C	0.766285	0.853297	0.349354
1399	H	0.777499	0.86278	0.612968
1400	H	0.776296	0.913066	0.609332
1401	H	0.751735	0.904413	0.41353
1402	N	0.752445	0.850458	0.429057
1403	H	0.748295	0.859798	0.456009
1404	H	0.753909	0.830515	0.43307
1405	C	0.643029	0.90568	0.642526
1406	C	0.613015	0.874986	0.640342
1407	C	0.601647	0.853505	0.34473
1408	C	0.619132	0.865829	0.385812
1409	C	0.649091	0.896434	0.388691
1410	C	0.662446	0.91619	0.349169
1411	H	0.652961	0.917692	0.612674
1412	H	0.602753	0.866203	0.609265
1413	H	0.611471	0.85061	0.41354
1414	N	0.665421	0.90539	0.428905
1415	H	0.656214	0.891868	0.455864
1416	H	0.68543	0.926756	0.432821
1417	C	0.908939	0.772309	0.642941
1418	C	0.878287	0.771704	0.64071
1419	C	0.856647	0.76137	0.344933
1420	C	0.868878	0.756053	0.386014
1421	C	0.899468	0.756668	0.388978
1422	C	0.919284	0.763143	0.349469
1423	H	0.921151	0.774622	0.613197
1424	H	0.869621	0.773357	0.609626
1425	H	0.853602	0.748382	0.413682
1426	N	0.908323	0.749225	0.429229
1427	H	0.894824	0.74504	0.456175
1428	H	0.929769	0.750776	0.433256
1429	C	0.743575	0.639811	0.642691
1430	C	0.744263	0.609798	0.640578
1431	C	0.754387	0.598465	0.344997
1432	C	0.75952	0.615965	0.386068
1433	C	0.758886	0.645931	0.388907
1434	C	0.752505	0.659229	0.349314
1435	H	0.741518	0.649741	0.612826
1436	H	0.742796	0.599519	0.609515
1437	H	0.767055	0.608311	0.413824
1438	N	0.766232	0.662275	0.429111
1439	H	0.770523	0.653074	0.45609
1440	H	0.764864	0.682281	0.432989
1441	C	0.876079	0.606908	0.642964
1442	C	0.906159	0.637538	0.640862
1443	C	0.917362	0.659073	0.345186
1444	C	0.899804	0.646788	0.38624
1445	C	0.869796	0.616221	0.389042
1446	C	0.856508	0.596495	0.349446
1447	H	0.866213	0.594762	0.613173
1448	H	0.916523	0.646275	0.609818
1449	H	0.907385	0.66201	0.413969
1450	N	0.853417	0.607295	0.429233
1451	H	0.862695	0.620732	0.456236
1452	H	0.833492	0.585861	0.433151
1453	C	0.991374	0.747204	0.993406
1454	C	0.972746	0.763782	0.667267
1455	C	0.938522	0.747356	0.677451
1456	C	0.922301	0.712807	0.682952
1457	C	0.937693	0.694068	0.006635
1458	C	0.971154	0.711449	0.991256
1459	H	0.984114	0.78878	0.670133
1460	H	0.897371	0.700525	0.690068
1461	C	0.527555	0.765411	0.993284
1462	C	0.547795	0.801164	0.991019
1463	C	0.581338	0.81853	0.006067
1464	C	0.596757	0.799796	0.68218
1465	C	0.580445	0.765227	0.676914
1466	C	0.54616	0.748801	0.667109
1467	H	0.621686	0.812046	0.689339
1468	H	0.53474	0.72383	0.67042
1469	O	0.982487	0.691512	0.975445
1470	O	0.536424	0.821125	0.975459
1471	H	0.986472	0.696133	0.942957
1472	H	0.532389	0.816582	0.942961
1473	C	0.768544	0.747296	0.993358
1474	C	0.751939	0.712081	0.667152
1475	C	0.76837	0.694239	0.677032
1476	C	0.802934	0.712514	0.682369
1477	C	0.821669	0.746669	0.006235
1478	C	0.804297	0.762823	0.991127
1479	H	0.726963	0.698515	0.670393
1480	H	0.815185	0.699831	0.689474
1481	C	0.750331	0.765267	0.993419
1482	C	0.714577	0.749735	0.991151
1483	C	0.697192	0.765862	0.006326
1484	C	0.71591	0.800001	0.682564
1485	C	0.750468	0.818297	0.677187
1486	C	0.766912	0.800472	0.667291
1487	H	0.703626	0.812648	0.689693
1488	H	0.791903	0.814073	0.670258
1489	O	0.824248	0.794137	0.975489
1490	O	0.694642	0.718444	0.975425
1491	H	0.819678	0.793589	0.942995
1492	H	0.699248	0.719038	0.942937
1493	C	0.768477	0.524438	0.993362
1494	C	0.803679	0.543061	0.667254
1495	C	0.821493	0.577302	0.677319
1496	C	0.803187	0.593555	0.682726
1497	C	0.769064	0.57816	0.006387
1498	C	0.752943	0.54466	0.991158
1499	H	0.817288	0.531678	0.670237
1500	H	0.815839	0.618489	0.689835
1501	C	0.750505	0.988256	0.993264
1502	C	0.766037	0.968037	0.991009
1503	C	0.74989	0.934507	0.006094
1504	C	0.715719	0.91905	0.682109
1505	C	0.697442	0.935343	0.676843
1506	C	0.715288	0.969634	0.667068
1507	H	0.703051	0.894116	0.689231
1508	H	0.701724	0.981043	0.670366
1509	O	0.721653	0.533307	0.975422
1510	O	0.797362	0.979417	0.975401
1511	H	0.722255	0.529316	0.942927
1512	H	0.796827	0.983443	0.94291
1513	C	0.610087	0.740445	0.975965
1514	C	0.640765	0.741089	0.973818
1515	C	0.662204	0.751183	0.67824
1516	C	0.649871	0.756321	0.719329
1517	C	0.619283	0.755716	0.722154
1518	C	0.599566	0.749353	0.682598
1519	H	0.598102	0.738392	0.9461
1520	H	0.649575	0.739634	0.942748
1521	H	0.665063	0.763849	0.747081
1522	N	0.610305	0.763091	0.762355
1523	H	0.623801	0.767379	0.789334
1524	H	0.58895	0.761762	0.766233
1525	C	0.775272	0.87273	0.976053
1526	C	0.774734	0.902807	0.973768
1527	C	0.764594	0.914229	0.678048
1528	C	0.759342	0.896756	0.719177
1529	C	0.759896	0.866751	0.722137
1530	C	0.766285	0.853297	0.682686
1531	H	0.777499	0.86278	0.946299
1532	H	0.776296	0.913066	0.942667
1533	H	0.751735	0.904413	0.746862
1534	N	0.752445	0.850458	0.762392
1535	H	0.748295	0.859798	0.789341
1536	H	0.753909	0.830515	0.766405
1537	C	0.643029	0.90568	0.975861
1538	C	0.613015	0.874986	0.973677
1539	C	0.601647	0.853505	0.678062
1540	C	0.619132	0.865829	0.719143
1541	C	0.649091	0.896434	0.722022
1542	C	0.662446	0.91619	0.6825
1543	H	0.652961	0.917692	0.946009
1544	H	0.602753	0.866203	0.942596
1545	H	0.611471	0.85061	0.746875
1546	N	0.665421	0.90539	0.76224
1547	H	0.656214	0.891868	0.789196
1548	H	0.68543	0.926756	0.766152
1549	C	0.908939	0.772309	0.976272
1550	C	0.878287	0.771704	0.974041
1551	C	0.856647	0.76137	0.678264
1552	C	0.868878	0.756053	0.719346
1553	C	0.899468	0.756668	0.722309
1554	C	0.919284	0.763143	0.682804
1555	H	0.921151	0.774622	0.946532
1556	H	0.869621	0.773357	0.942961
1557	H	0.853602	0.748382	0.747017
1558	N	0.908323	0.749225	0.762561
1559	H	0.894824	0.74504	0.789506
1560	H	0.929769	0.750776	0.766591
1561	C	0.743575	0.639811	0.976023
1562	C	0.744263	0.609798	0.97391
1563	C	0.754387	0.598465	0.678328
1564	C	0.75952	0.615965	0.7194
1565	C	0.758886	0.645931	0.722238
1566	C	0.752505	0.659229	0.682649
1567	H	0.741518	0.649741	0.946157
1568	H	0.742796	0.599519	0.942846
1569	H	0.767055	0.608311	0.747159
1570	N	0.766232	0.662275	0.762443
1571	H	0.770523	0.653074	0.789425
1572	H	0.764864	0.682281	0.766321
1573	C	0.876079	0.606908	0.976299
1574	C	0.906159	0.637538	0.974193
1575	C	0.917362	0.659073	0.678517
1576	C	0.899804	0.646788	0.719575
1577	C	0.869796	0.616221	0.722373
1578	C	0.856508	0.596495	0.682777
1579	H	0.866213	0.594762	0.946508
1580	H	0.916523	0.646275	0.943153
1581	H	0.907385	0.66201	0.747301
1582	N	0.853417	0.607295	0.762564
1583	H	0.862695	0.620732	0.78957
1584	H	0.833492	0.585861	0.766486
