data_C864H360N144_2018-02-15_10:36:06
#******************************************
#
# CIF file created by Zeo++
# Zeo++ is an open source package to
# analyze microporous materials
#
#*******************************************

_cell_length_a		42.9065   
_cell_length_b		42.9064   
_cell_length_c		30.0142   
_cell_angle_alpha		90.0011   
_cell_angle_beta		89.9989   
_cell_angle_gamma		120   

_symmetry_space_group_name_H-M		'P1'
_symmetry_Int_Tables_number		1
_symmetry_cell_setting		Triclinic

loop_
_symmetry_equiv_pos_as_xyz
'+x,+y,+z'

loop_
_atom_site_label
_atom_site_type_symbol
_atom_site_fract_x
_atom_site_fract_y
_atom_site_fract_z
1	C	0.024726	0.316742	0.99936
2	C	0.491576	0.317097	0.001319
3	C	0.491113	0.35018	0.002399
4	C	0.024721	0.382374	0.00295
5	C	0.058333	0.383798	0.001986
6	C	0.057895	0.350258	0.000827
7	C	0.459889	0.283745	0.008335
8	C	0.089663	0.348629	0.007232
9	H	0.024714	0.406069	0.99928
10	C	0.024725	0.283099	0.999364
11	C	0.491569	0.249599	0.00132
12	C	0.491113	0.216053	0.002409
13	C	0.024721	0.217465	0.002977
14	C	0.058333	0.24965	0.002011
15	C	0.05789	0.282749	0.000847
16	C	0.459861	0.251247	0.008223
17	H	0.024714	0.193763	0.999314
18	C	0.089661	0.316144	0.007244
19	H	0.436239	0.229075	0.017038
20	H	0.43624	0.282291	0.017024
21	H	0.113406	0.317659	0.015527
22	H	0.113409	0.370864	0.015507
23	C	0.257898	0.283099	0.332587
24	C	0.25755	0.249592	0.334528
25	C	0.224463	0.216048	0.335645
26	C	0.192274	0.217468	0.336181
27	C	0.190838	0.249647	0.335258
28	C	0.224377	0.282746	0.334049
29	C	0.290902	0.251254	0.341518
30	C	0.226019	0.316144	0.340502
31	H	0.168571	0.193758	0.33261
32	C	0.291541	0.316742	0.332596
33	C	0.325044	0.317094	0.334575
34	C	0.358593	0.350177	0.335681
35	C	0.357169	0.382364	0.336184
36	C	0.324989	0.383801	0.335248
37	C	0.291891	0.350258	0.334065
38	C	0.323382	0.283745	0.341582
39	H	0.380878	0.406065	0.332599
40	C	0.258495	0.348641	0.340409
41	H	0.345563	0.282286	0.350334
42	H	0.292357	0.22908	0.350314
43	H	0.256982	0.370846	0.348835
44	H	0.203792	0.317654	0.348825
45	C	0.291544	0.049915	0.332554
46	C	0.325045	0.083072	0.334558
47	C	0.358593	0.08353	0.335655
48	C	0.357175	0.04992	0.336204
49	C	0.324995	0.016309	0.335235
50	C	0.291898	0.01675	0.333999
51	C	0.323389	0.114767	0.341528
52	C	0.258498	0.484985	0.340392
53	H	0.380892	0.049949	0.332601
54	C	0.257901	0.049916	0.332544
55	C	0.257553	0.083073	0.334512
56	C	0.224465	0.08353	0.335625
57	C	0.192277	0.049921	0.336161
58	C	0.19084	0.016307	0.335218
59	C	0.224379	0.016749	0.333985
60	C	0.290903	0.114763	0.341522
61	H	0.168574	0.049929	0.332596
62	C	0.226009	0.48498	0.340366
63	H	0.292342	0.138382	0.350324
64	H	0.345565	0.138385	0.350344
65	H	0.203805	0.461265	0.348812
66	H	0.256981	0.461262	0.348815
67	C	0.15618	0.246682	0.001256
68	C	0.125583	0.218887	0.023057
69	C	0.092847	0.218898	0.023097
70	C	0.090026	0.246684	0.0013
71	N	0.120093	0.271142	0.312554
72	H	0.072301	0.2002	0.042291
73	H	0.127434	0.200196	0.042262
74	N	0.150561	0.271144	0.312535
75	C	0.327962	0.484619	0.001211
76	C	0.355758	0.481809	0.022998
77	C	0.355746	0.449063	0.023021
78	C	0.327955	0.418458	0.00122
79	N	0.30349	0.424069	0.312496
80	H	0.374445	0.447211	0.042207
81	H	0.374453	0.502349	0.042205
82	N	0.303491	0.454536	0.312494
83	C	0.090025	0.418455	0.001264
84	C	0.09284	0.449068	0.023041
85	C	0.125587	0.481804	0.023038
86	C	0.156181	0.484613	0.001217
87	N	0.150561	0.454531	0.3125
88	H	0.127447	0.502362	0.042221
89	H	0.072311	0.44723	0.042261
90	N	0.120095	0.424064	0.312522
91	C	0.393234	0.353099	0.001821
92	C	0.423918	0.381064	0.023284
93	C	0.456657	0.381056	0.023316
94	C	0.459392	0.353099	0.00185
95	N	0.429222	0.328445	0.313449
96	H	0.477294	0.399929	0.042236
97	H	0.422153	0.399932	0.04222
98	N	0.398759	0.328443	0.313438
99	C	0.221546	0.115251	0.001773
100	C	0.193588	0.117977	0.023244
101	C	0.193597	0.150725	0.023266
102	C	0.221545	0.181409	0.001782
103	N	0.246198	0.17589	0.313383
104	H	0.174727	0.152493	0.042192
105	H	0.174725	0.097351	0.04219
106	N	0.2462	0.145427	0.31338
107	C	0.459394	0.181413	0.001847
108	C	0.456659	0.150722	0.023309
109	C	0.423908	0.117984	0.023313
110	C	0.393232	0.115253	0.001816
111	N	0.398761	0.14543	0.313422
112	H	0.422135	0.097342	0.042235
113	H	0.477278	0.15248	0.042265
114	N	0.429224	0.175895	0.313438
115	C	0.024726	0.316742	0.332694
116	C	0.491575	0.317094	0.334652
117	C	0.491111	0.35018	0.335731
118	C	0.024721	0.382375	0.336284
119	C	0.058333	0.383798	0.335318
120	C	0.057895	0.350258	0.334162
121	C	0.459889	0.283745	0.341668
122	C	0.089663	0.34863	0.340566
123	H	0.024714	0.406068	0.332614
124	C	0.024725	0.283099	0.332697
125	C	0.491569	0.249599	0.334652
126	C	0.491113	0.216053	0.335741
127	C	0.024721	0.217465	0.336311
128	C	0.058333	0.24965	0.335345
129	C	0.05789	0.282749	0.334179
130	C	0.459861	0.251247	0.341555
131	H	0.024714	0.193763	0.332648
132	C	0.089661	0.316144	0.340579
133	H	0.436237	0.229075	0.350371
134	H	0.43624	0.282292	0.350358
135	H	0.113406	0.317659	0.348862
136	H	0.113408	0.370862	0.348842
137	C	0.257897	0.283096	0.665922
138	C	0.25755	0.249592	0.667861
139	C	0.224463	0.216047	0.668977
140	C	0.192274	0.217468	0.669513
141	C	0.190838	0.249647	0.66859
142	C	0.224377	0.282747	0.667381
143	C	0.290902	0.251254	0.674851
144	C	0.226019	0.316145	0.673834
145	H	0.168571	0.193758	0.665945
146	C	0.291541	0.316742	0.665928
147	C	0.325044	0.317094	0.667907
148	C	0.358593	0.350177	0.669013
149	C	0.357169	0.382364	0.669517
150	C	0.324989	0.383801	0.66858
151	C	0.29189	0.350255	0.667398
152	C	0.323381	0.283742	0.674914
153	H	0.380878	0.406066	0.665932
154	C	0.258495	0.348641	0.673741
155	H	0.345563	0.282287	0.683666
156	H	0.292357	0.22908	0.683646
157	H	0.256982	0.370846	0.682171
158	H	0.203793	0.317654	0.682157
159	C	0.291545	0.049915	0.665888
160	C	0.325045	0.083072	0.667894
161	C	0.358593	0.08353	0.66899
162	C	0.357176	0.04992	0.669537
163	C	0.324995	0.016309	0.668567
164	C	0.291898	0.01675	0.667334
165	C	0.32339	0.114767	0.674864
166	C	0.258498	0.484985	0.673725
167	H	0.380893	0.049949	0.665935
168	C	0.257902	0.049917	0.665878
169	C	0.257553	0.083074	0.667844
170	C	0.224465	0.08353	0.668957
171	C	0.192277	0.049921	0.669493
172	C	0.190841	0.016307	0.668554
173	C	0.224379	0.016749	0.667321
174	C	0.290903	0.114762	0.674854
175	H	0.168574	0.049929	0.665928
176	C	0.226009	0.48498	0.673698
177	H	0.292342	0.138382	0.68366
178	H	0.345565	0.138385	0.68368
179	H	0.203805	0.461265	0.682147
180	H	0.256981	0.461262	0.682147
181	C	0.15618	0.246682	0.334588
182	C	0.125583	0.218887	0.356391
183	C	0.092847	0.218898	0.356431
184	C	0.090026	0.246684	0.334635
185	N	0.120094	0.271142	0.645888
186	H	0.072301	0.2002	0.375626
187	H	0.127434	0.200196	0.375596
188	N	0.150561	0.271145	0.645868
189	C	0.327961	0.484616	0.334545
190	C	0.355758	0.48181	0.356331
191	C	0.355744	0.44906	0.356355
192	C	0.327955	0.418458	0.334555
193	N	0.30349	0.42407	0.645831
194	H	0.374444	0.447209	0.375542
195	H	0.374452	0.502346	0.375539
196	N	0.303492	0.454537	0.645828
197	C	0.090025	0.418456	0.334598
198	C	0.092841	0.449068	0.356375
199	C	0.125587	0.481804	0.356371
200	C	0.156181	0.484614	0.334552
201	N	0.15056	0.454529	0.645834
202	H	0.127447	0.502362	0.375556
203	H	0.072311	0.44723	0.375592
204	N	0.120094	0.424062	0.645854
205	C	0.393234	0.3531	0.335155
206	C	0.423918	0.381064	0.356618
207	C	0.456657	0.381056	0.356648
208	C	0.459392	0.3531	0.335185
209	N	0.429222	0.328446	0.646784
210	H	0.477295	0.39993	0.375569
211	H	0.422153	0.399932	0.375552
212	N	0.398757	0.328443	0.646771
213	C	0.221546	0.115251	0.335108
214	C	0.193588	0.117977	0.356578
215	C	0.193597	0.150725	0.356601
216	C	0.221545	0.181409	0.335115
217	N	0.246198	0.17589	0.646717
218	H	0.174727	0.152493	0.375526
219	H	0.174725	0.097351	0.375522
220	N	0.2462	0.145427	0.646714
221	C	0.459394	0.181413	0.335181
222	C	0.456659	0.150722	0.356641
223	C	0.423908	0.117984	0.356648
224	C	0.393233	0.115253	0.335148
225	N	0.398762	0.14543	0.646754
226	H	0.422133	0.097342	0.375569
227	H	0.477279	0.15248	0.375599
228	N	0.429225	0.175895	0.646771
229	C	0.024726	0.316742	0.666028
230	C	0.491576	0.317094	0.667984
231	C	0.491112	0.35018	0.669067
232	C	0.024721	0.382375	0.669616
233	C	0.058333	0.383799	0.668654
234	C	0.057895	0.350258	0.667494
235	C	0.459889	0.283745	0.675001
236	C	0.089663	0.34863	0.673898
237	H	0.024714	0.406068	0.665948
238	C	0.024725	0.283099	0.666032
239	C	0.491569	0.249599	0.667987
240	C	0.491113	0.216053	0.669077
241	C	0.024721	0.217465	0.669643
242	C	0.058333	0.24965	0.668677
243	C	0.057891	0.282749	0.667514
244	C	0.459862	0.251247	0.674891
245	H	0.024714	0.193763	0.665982
246	C	0.089661	0.316145	0.673911
247	H	0.436237	0.229075	0.683703
248	H	0.436241	0.282292	0.68369
249	H	0.113405	0.317657	0.682194
250	H	0.113408	0.370862	0.682174
251	C	0.257897	0.283097	0.999254
252	C	0.25755	0.249592	0.001196
253	C	0.224463	0.216047	0.00231
254	C	0.192274	0.217468	0.002846
255	C	0.190838	0.249647	0.001925
256	C	0.224377	0.282746	0.000716
257	C	0.290903	0.251255	0.008184
258	C	0.226019	0.316144	0.007168
259	H	0.168571	0.193758	0.999277
260	C	0.29154	0.316739	0.99926
261	C	0.325044	0.317094	0.001241
262	C	0.358593	0.350177	0.002348
263	C	0.357169	0.382364	0.00285
264	C	0.324989	0.383801	0.001915
265	C	0.291891	0.350258	0.000732
266	C	0.323382	0.283745	0.008247
267	H	0.380878	0.406066	0.999267
268	C	0.258495	0.34864	0.007076
269	H	0.345563	0.282286	0.017
270	H	0.292357	0.22908	0.016981
271	H	0.256983	0.370848	0.015503
272	H	0.203792	0.317654	0.015492
273	C	0.291545	0.049915	0.999221
274	C	0.325045	0.083072	0.001226
275	C	0.358593	0.08353	0.002322
276	C	0.357175	0.049921	0.002871
277	C	0.324997	0.016309	0.001902
278	C	0.291898	0.01675	0.000667
279	C	0.323389	0.114766	0.008196
280	C	0.258499	0.484987	0.00706
281	H	0.380893	0.049949	0.999267
282	C	0.257902	0.049917	0.999211
283	C	0.257553	0.083073	0.001177
284	C	0.224465	0.08353	0.00229
285	C	0.192277	0.049921	0.002827
286	C	0.19084	0.016307	0.001886
287	C	0.224379	0.016749	0.000653
288	C	0.290905	0.114763	0.008187
289	H	0.168574	0.049929	0.999264
290	C	0.226009	0.484979	0.007031
291	H	0.292342	0.138382	0.016993
292	H	0.345565	0.138385	0.017012
293	H	0.203805	0.461264	0.01548
294	H	0.256981	0.461262	0.015481
295	C	0.15618	0.246682	0.667924
296	C	0.125583	0.218887	0.689724
297	C	0.092847	0.218898	0.689764
298	C	0.090026	0.246684	0.667967
299	N	0.120094	0.271142	0.97922
300	H	0.072301	0.2002	0.708958
301	H	0.127434	0.200196	0.708928
302	N	0.15056	0.271142	0.979203
303	C	0.327961	0.484617	0.667877
304	C	0.355758	0.48181	0.689664
305	C	0.355744	0.449061	0.689687
306	C	0.327956	0.418459	0.667887
307	N	0.30349	0.42407	0.979163
308	H	0.374444	0.447209	0.708875
309	H	0.374452	0.502347	0.708871
310	N	0.303492	0.454537	0.97916
311	C	0.090025	0.418456	0.667931
312	C	0.092841	0.449069	0.689707
313	C	0.125587	0.481804	0.689704
314	C	0.156181	0.484614	0.667884
315	N	0.15056	0.454529	0.979167
316	H	0.127446	0.50236	0.708888
317	H	0.072311	0.447231	0.708928
318	N	0.120094	0.424062	0.97919
319	C	0.393234	0.3531	0.668487
320	C	0.423918	0.381065	0.68995
321	C	0.456656	0.381054	0.689983
322	C	0.459393	0.3531	0.668517
323	N	0.429223	0.328446	0.980116
324	H	0.477295	0.39993	0.708901
325	H	0.422152	0.39993	0.708888
326	N	0.398757	0.328443	0.980106
327	C	0.221546	0.115251	0.66844
328	C	0.193588	0.117977	0.68991
329	C	0.193597	0.150725	0.689934
330	C	0.221545	0.181409	0.668447
331	N	0.246199	0.17589	0.98005
332	H	0.174727	0.152493	0.708858
333	H	0.174725	0.09735	0.708858
334	N	0.2462	0.145427	0.980046
335	C	0.459394	0.181413	0.668514
336	C	0.45666	0.150722	0.689977
337	C	0.423908	0.117984	0.68998
338	C	0.393231	0.115253	0.668484
339	N	0.398762	0.14543	0.98009
340	H	0.422133	0.097342	0.708901
341	H	0.477279	0.15248	0.708931
342	N	0.429225	0.175895	0.980106
343	C	0.024726	0.816744	0.99936
344	C	0.491576	0.817095	0.001319
345	C	0.491113	0.850181	0.002399
346	C	0.02472	0.882373	0.00295
347	C	0.058332	0.8838	0.001986
348	C	0.057895	0.850259	0.000827
349	C	0.459888	0.783746	0.008335
350	C	0.089663	0.848631	0.007232
351	H	0.024714	0.906067	0.99928
352	C	0.024725	0.783101	0.999364
353	C	0.491568	0.7496	0.00132
354	C	0.491113	0.716054	0.002409
355	C	0.024719	0.717464	0.002977
356	C	0.058334	0.749651	0.002011
357	C	0.05789	0.782748	0.000847
358	C	0.459861	0.751247	0.008223
359	H	0.024714	0.693764	0.999314
360	C	0.089661	0.816145	0.007244
361	H	0.436237	0.729074	0.017038
362	H	0.436239	0.78229	0.017024
363	H	0.113404	0.817658	0.015527
364	H	0.113409	0.870863	0.015507
365	C	0.257897	0.783098	0.332587
366	C	0.257549	0.749592	0.334528
367	C	0.224462	0.716046	0.335645
368	C	0.192273	0.717467	0.336181
369	C	0.190838	0.749649	0.335258
370	C	0.224376	0.782745	0.334049
371	C	0.290903	0.751255	0.341518
372	C	0.226019	0.816146	0.340502
373	H	0.168571	0.693758	0.33261
374	C	0.29154	0.81674	0.332596
375	C	0.325043	0.817093	0.334575
376	C	0.358592	0.850176	0.335681
377	C	0.357169	0.882365	0.336184
378	C	0.324988	0.8838	0.335248
379	C	0.29189	0.850257	0.334065
380	C	0.323381	0.783744	0.341582
381	H	0.380879	0.906067	0.332599
382	C	0.258494	0.848639	0.340409
383	H	0.345562	0.782285	0.350334
384	H	0.292356	0.72908	0.350314
385	H	0.256982	0.870847	0.348835
386	H	0.203793	0.817656	0.348825
387	C	0.291544	0.549916	0.332554
388	C	0.325044	0.583071	0.334558
389	C	0.358593	0.583531	0.335655
390	C	0.357175	0.549921	0.336204
391	C	0.324996	0.516311	0.335235
392	C	0.291898	0.516749	0.333999
393	C	0.323388	0.614766	0.341528
394	C	0.258497	0.984987	0.340392
395	H	0.380892	0.549948	0.332601
396	C	0.257901	0.549916	0.332544
397	C	0.257552	0.583074	0.334512
398	C	0.224465	0.583531	0.335625
399	C	0.192276	0.549921	0.336161
400	C	0.190841	0.516308	0.335218
401	C	0.224379	0.516749	0.333985
402	C	0.290904	0.614763	0.341518
403	H	0.168573	0.549929	0.332596
404	C	0.22601	0.984981	0.340366
405	H	0.292341	0.638381	0.350324
406	H	0.345566	0.638386	0.350344
407	H	0.203804	0.961266	0.348812
408	H	0.256981	0.961264	0.348815
409	C	0.15618	0.746683	0.001256
410	C	0.125583	0.718888	0.023057
411	C	0.092848	0.718899	0.023097
412	C	0.090026	0.746685	0.0013
413	N	0.120094	0.771143	0.312554
414	H	0.072299	0.700201	0.042291
415	H	0.127433	0.700195	0.042262
416	N	0.15056	0.771143	0.312535
417	C	0.327961	0.984617	0.001211
418	C	0.355758	0.981811	0.022998
419	C	0.355745	0.949061	0.023021
420	C	0.327956	0.91846	0.00122
421	N	0.30349	0.924071	0.312496
422	H	0.374444	0.94721	0.042207
423	H	0.374452	0.002347	0.042205
424	N	0.303492	0.954538	0.312494
425	C	0.090025	0.918457	0.001264
426	C	0.092841	0.94907	0.023041
427	C	0.125588	0.981805	0.023038
428	C	0.156182	0.984615	0.001217
429	N	0.150561	0.95453	0.3125
430	H	0.127447	0.002361	0.042221
431	H	0.07231	0.947229	0.042261
432	N	0.120094	0.924063	0.312522
433	C	0.393234	0.853101	0.001821
434	C	0.423918	0.881066	0.023284
435	C	0.456656	0.881055	0.023316
436	C	0.459393	0.853101	0.00185
437	N	0.429222	0.828444	0.313449
438	H	0.477295	0.899931	0.042236
439	H	0.422152	0.899931	0.04222
440	N	0.398758	0.828444	0.313438
441	C	0.221545	0.61525	0.001773
442	C	0.193587	0.617976	0.023244
443	C	0.193596	0.650725	0.023266
444	C	0.221545	0.68141	0.001782
445	N	0.246198	0.675891	0.313383
446	H	0.174726	0.652494	0.042192
447	H	0.174724	0.597351	0.04219
448	N	0.246199	0.645426	0.31338
449	C	0.459393	0.681413	0.001847
450	C	0.456658	0.650723	0.023309
451	C	0.423909	0.617984	0.023313
452	C	0.393231	0.615252	0.001816
453	N	0.398761	0.645432	0.313422
454	H	0.422134	0.597343	0.042235
455	H	0.477277	0.65248	0.042265
456	N	0.429225	0.675896	0.313438
457	C	0.024727	0.816743	0.332694
458	C	0.491576	0.817096	0.334652
459	C	0.491113	0.850181	0.335731
460	C	0.02472	0.882374	0.336284
461	C	0.058332	0.8838	0.335318
462	C	0.057895	0.850259	0.334162
463	C	0.459887	0.783744	0.341668
464	C	0.089664	0.848631	0.340566
465	H	0.024714	0.90607	0.332614
466	C	0.024726	0.7831	0.332697
467	C	0.491568	0.7496	0.334652
468	C	0.491113	0.716054	0.335741
469	C	0.024719	0.717465	0.336311
470	C	0.058333	0.749649	0.335345
471	C	0.05789	0.782748	0.334179
472	C	0.459861	0.751247	0.341555
473	H	0.024713	0.693763	0.332648
474	C	0.089661	0.816146	0.340579
475	H	0.436237	0.729075	0.350371
476	H	0.436239	0.78229	0.350358
477	H	0.113404	0.817658	0.348862
478	H	0.113409	0.870863	0.348842
479	C	0.257897	0.783098	0.665922
480	C	0.257549	0.749593	0.667861
481	C	0.224462	0.716047	0.668977
482	C	0.192274	0.717468	0.669513
483	C	0.190837	0.749646	0.66859
484	C	0.224376	0.782745	0.667381
485	C	0.290903	0.751256	0.674851
486	C	0.226019	0.816146	0.673834
487	H	0.168571	0.693758	0.665945
488	C	0.29154	0.816741	0.665928
489	C	0.325043	0.817093	0.667907
490	C	0.358592	0.850176	0.669013
491	C	0.357169	0.882366	0.669517
492	C	0.324988	0.8838	0.66858
493	C	0.29189	0.850257	0.667398
494	C	0.323382	0.783744	0.674914
495	H	0.380879	0.906067	0.665932
496	C	0.258494	0.84864	0.673741
497	H	0.345562	0.782285	0.683666
498	H	0.292357	0.72908	0.683646
499	H	0.256982	0.870848	0.682171
500	H	0.203791	0.817653	0.682157
501	C	0.291544	0.549916	0.665888
502	C	0.325044	0.583072	0.667894
503	C	0.358591	0.583529	0.66899
504	C	0.357175	0.549921	0.669537
505	C	0.324996	0.516311	0.668567
506	C	0.291899	0.51675	0.667334
507	C	0.323388	0.614766	0.674864
508	C	0.258498	0.984987	0.673725
509	H	0.380892	0.549948	0.665935
510	C	0.257901	0.549916	0.665878
511	C	0.257553	0.583074	0.667844
512	C	0.224465	0.583532	0.668957
513	C	0.192277	0.549921	0.669493
514	C	0.190841	0.516308	0.668554
515	C	0.224379	0.51675	0.667321
516	C	0.290904	0.614763	0.674854
517	H	0.168573	0.549929	0.665928
518	C	0.226009	0.984979	0.673698
519	H	0.292342	0.638381	0.68366
520	H	0.345566	0.638387	0.68368
521	H	0.203803	0.961264	0.682147
522	H	0.256981	0.961264	0.682147
523	C	0.15618	0.746683	0.334588
524	C	0.125582	0.718886	0.356391
525	C	0.092848	0.718899	0.356431
526	C	0.090026	0.746686	0.334635
527	N	0.120094	0.771143	0.645888
528	H	0.0723	0.700201	0.375626
529	H	0.127433	0.700196	0.375596
530	N	0.15056	0.771143	0.645868
531	C	0.327961	0.984618	0.334545
532	C	0.355758	0.981811	0.356331
533	C	0.355745	0.949062	0.356355
534	C	0.327956	0.91846	0.334555
535	N	0.30349	0.924071	0.645831
536	H	0.374444	0.94721	0.375542
537	H	0.374452	0.002347	0.375539
538	N	0.303492	0.954538	0.645828
539	C	0.090025	0.918457	0.334598
540	C	0.092841	0.94907	0.356375
541	C	0.125589	0.981806	0.356371
542	C	0.156183	0.984615	0.334552
543	N	0.150561	0.95453	0.645834
544	H	0.127447	0.002361	0.375556
545	H	0.07231	0.947229	0.375592
546	N	0.120095	0.924063	0.645854
547	C	0.393233	0.853099	0.335155
548	C	0.423918	0.881066	0.356618
549	C	0.456656	0.881055	0.356648
550	C	0.459393	0.853101	0.335185
551	N	0.429222	0.828445	0.646784
552	H	0.477295	0.899931	0.375569
553	H	0.422152	0.899931	0.375552
554	N	0.398758	0.828445	0.646771
555	C	0.221545	0.61525	0.335108
556	C	0.193587	0.617976	0.356578
557	C	0.193597	0.650726	0.356601
558	C	0.221545	0.681411	0.335115
559	N	0.246199	0.675891	0.646717
560	H	0.174726	0.652494	0.375526
561	H	0.174725	0.597351	0.375522
562	N	0.246199	0.645427	0.646714
563	C	0.459393	0.681413	0.335181
564	C	0.456658	0.650723	0.356641
565	C	0.423909	0.617984	0.356648
566	C	0.393231	0.615253	0.335148
567	N	0.398761	0.645432	0.646754
568	H	0.422135	0.597343	0.375569
569	H	0.477277	0.65248	0.375599
570	N	0.429225	0.675896	0.646771
571	C	0.024728	0.816743	0.666028
572	C	0.491576	0.817096	0.667984
573	C	0.491113	0.850182	0.669067
574	C	0.02472	0.882374	0.669616
575	C	0.058333	0.8838	0.668654
576	C	0.057896	0.85026	0.667494
577	C	0.459887	0.783744	0.675001
578	C	0.089664	0.848632	0.673898
579	H	0.024715	0.90607	0.665948
580	C	0.024724	0.783101	0.666032
581	C	0.491568	0.749601	0.667987
582	C	0.491113	0.716055	0.669077
583	C	0.02472	0.717465	0.669643
584	C	0.058333	0.749649	0.668677
585	C	0.05789	0.782748	0.667514
586	C	0.459861	0.751248	0.674891
587	H	0.024713	0.693763	0.665982
588	C	0.089661	0.816146	0.673911
589	H	0.436237	0.729075	0.683703
590	H	0.436239	0.782291	0.68369
591	H	0.113405	0.817659	0.682194
592	H	0.113407	0.870864	0.682174
593	C	0.257898	0.783098	0.999254
594	C	0.257549	0.749592	0.001196
595	C	0.224463	0.716049	0.00231
596	C	0.192273	0.717467	0.002846
597	C	0.190838	0.749648	0.001925
598	C	0.224376	0.782745	0.000716
599	C	0.290902	0.751255	0.008184
600	C	0.226019	0.816145	0.007168
601	H	0.168571	0.693758	0.999277
602	C	0.29154	0.816741	0.99926
603	C	0.325043	0.817093	0.001241
604	C	0.358593	0.850178	0.002348
605	C	0.357169	0.882365	0.00285
606	C	0.324988	0.8838	0.001915
607	C	0.29189	0.850256	0.000732
608	C	0.323381	0.783743	0.008247
609	H	0.380879	0.906067	0.999267
610	C	0.258494	0.848639	0.007076
611	H	0.345562	0.782285	0.017
612	H	0.292356	0.72908	0.016981
613	H	0.256982	0.870847	0.015503
614	H	0.203792	0.817655	0.015492
615	C	0.291544	0.549916	0.999221
616	C	0.325044	0.583071	0.001226
617	C	0.358593	0.583531	0.002322
618	C	0.357175	0.549921	0.002871
619	C	0.324996	0.51631	0.001902
620	C	0.291898	0.516749	0.000667
621	C	0.323389	0.614768	0.008196
622	C	0.258499	0.984986	0.00706
623	H	0.380892	0.549948	0.999267
624	C	0.257901	0.549916	0.999211
625	C	0.257552	0.583074	0.001177
626	C	0.224465	0.583531	0.00229
627	C	0.192276	0.549921	0.002827
628	C	0.19084	0.516308	0.001886
629	C	0.224379	0.516749	0.000653
630	C	0.290903	0.614763	0.008187
631	H	0.168574	0.54993	0.999264
632	C	0.22601	0.984981	0.007031
633	H	0.292342	0.638383	0.016993
634	H	0.345566	0.638386	0.017012
635	H	0.203804	0.961266	0.015479
636	H	0.256981	0.961263	0.015481
637	C	0.15618	0.746683	0.667924
638	C	0.125583	0.718886	0.689724
639	C	0.092846	0.7189	0.689764
640	C	0.090026	0.746686	0.667967
641	N	0.120095	0.771144	0.97922
642	H	0.0723	0.700201	0.708958
643	H	0.127433	0.700196	0.708928
644	N	0.150561	0.771144	0.979203
645	C	0.327961	0.984618	0.667877
646	C	0.355758	0.981811	0.689664
647	C	0.355745	0.949062	0.689687
648	C	0.327956	0.91846	0.667887
649	N	0.30349	0.924071	0.979163
650	H	0.374444	0.947211	0.708875
651	H	0.374452	0.002347	0.708871
652	N	0.303492	0.954539	0.97916
653	C	0.090025	0.918458	0.667931
654	C	0.09284	0.949067	0.689707
655	C	0.125589	0.981806	0.689704
656	C	0.156181	0.984615	0.667884
657	N	0.150559	0.954531	0.979167
658	H	0.127447	0.002361	0.708888
659	H	0.072311	0.94723	0.708928
660	N	0.120095	0.924063	0.97919
661	C	0.393233	0.853099	0.668487
662	C	0.423916	0.881063	0.68995
663	C	0.456656	0.881055	0.689983
664	C	0.459392	0.853099	0.668517
665	N	0.429222	0.828445	0.980116
666	H	0.477295	0.899932	0.708901
667	H	0.422152	0.899932	0.708888
668	N	0.398757	0.828442	0.980106
669	C	0.221545	0.61525	0.66844
670	C	0.193587	0.617977	0.68991
671	C	0.193597	0.650726	0.689934
672	C	0.221544	0.681408	0.668447
673	N	0.246199	0.675891	0.98005
674	H	0.174727	0.652494	0.708858
675	H	0.174725	0.597351	0.708858
676	N	0.246199	0.645427	0.980046
677	C	0.459393	0.681414	0.668514
678	C	0.456658	0.650723	0.689977
679	C	0.423909	0.617985	0.68998
680	C	0.393231	0.615253	0.668484
681	N	0.39876	0.64543	0.98009
682	H	0.422133	0.597341	0.708901
683	H	0.477278	0.652481	0.708931
684	N	0.429224	0.675894	0.980106
685	C	0.524726	0.316742	0.99936
686	C	0.991577	0.317097	0.001319
687	C	0.991112	0.35018	0.002399
688	C	0.524721	0.382374	0.00295
689	C	0.558332	0.383798	0.001986
690	C	0.557895	0.350258	0.000827
691	C	0.959887	0.283745	0.008335
692	C	0.589661	0.348629	0.007232
693	H	0.524713	0.406069	0.99928
694	C	0.524725	0.283099	0.999364
695	C	0.991567	0.249599	0.00132
696	C	0.991114	0.216053	0.002409
697	C	0.52472	0.217465	0.002977
698	C	0.558332	0.24965	0.002011
699	C	0.557891	0.282749	0.000847
700	C	0.95986	0.251247	0.008223
701	H	0.524714	0.193763	0.999314
702	C	0.589661	0.316144	0.007244
703	H	0.936237	0.229075	0.017038
704	H	0.936239	0.282291	0.017024
705	H	0.613405	0.317659	0.015527
706	H	0.613408	0.370864	0.015507
707	C	0.757898	0.283099	0.332587
708	C	0.757548	0.249592	0.334528
709	C	0.724461	0.216048	0.335645
710	C	0.692274	0.217468	0.336181
711	C	0.690838	0.249647	0.335258
712	C	0.724378	0.282746	0.334049
713	C	0.790901	0.251254	0.341518
714	C	0.726018	0.316144	0.340502
715	H	0.66857	0.193758	0.33261
716	C	0.79154	0.316742	0.332596
717	C	0.825044	0.317094	0.334575
718	C	0.858593	0.350177	0.335681
719	C	0.857169	0.382364	0.336184
720	C	0.824988	0.383801	0.335248
721	C	0.79189	0.350258	0.334065
722	C	0.823381	0.283745	0.341582
723	H	0.880878	0.406065	0.332599
724	C	0.758494	0.348641	0.340409
725	H	0.845562	0.282286	0.350334
726	H	0.792357	0.22908	0.350314
727	H	0.756981	0.370846	0.348835
728	H	0.703793	0.317654	0.348825
729	C	0.791543	0.049915	0.332554
730	C	0.825044	0.083072	0.334558
731	C	0.858592	0.08353	0.335655
732	C	0.857174	0.04992	0.336204
733	C	0.824996	0.016309	0.335235
734	C	0.791899	0.01675	0.333999
735	C	0.823388	0.114767	0.341528
736	C	0.758497	0.484985	0.340392
737	H	0.880893	0.049949	0.332601
738	C	0.757901	0.049916	0.332544
739	C	0.757551	0.083073	0.334512
740	C	0.724463	0.08353	0.335625
741	C	0.692277	0.049921	0.336161
742	C	0.69084	0.016307	0.335218
743	C	0.72438	0.016749	0.333985
744	C	0.790904	0.114763	0.341522
745	H	0.668573	0.049929	0.332596
746	C	0.726008	0.48498	0.340366
747	H	0.792342	0.138382	0.350324
748	H	0.845566	0.138385	0.350344
749	H	0.703805	0.461265	0.348812
750	H	0.756979	0.461262	0.348815
751	C	0.65618	0.246682	0.001256
752	C	0.625583	0.218887	0.023057
753	C	0.592846	0.218898	0.023097
754	C	0.590026	0.246684	0.0013
755	N	0.620094	0.271142	0.312554
756	H	0.5723	0.2002	0.042291
757	H	0.627434	0.200196	0.042262
758	N	0.650562	0.271144	0.312535
759	C	0.827961	0.484619	0.001211
760	C	0.855756	0.481809	0.022998
761	C	0.855744	0.449063	0.023021
762	C	0.827955	0.418458	0.00122
763	N	0.80349	0.424069	0.312496
764	H	0.874445	0.447211	0.042207
765	H	0.874454	0.502349	0.042205
766	N	0.80349	0.454536	0.312494
767	C	0.590025	0.418455	0.001264
768	C	0.592841	0.449068	0.023041
769	C	0.625586	0.481804	0.023038
770	C	0.65618	0.484613	0.001217
771	N	0.65056	0.454531	0.3125
772	H	0.627447	0.502362	0.042221
773	H	0.572309	0.44723	0.042261
774	N	0.620096	0.424064	0.312522
775	C	0.893233	0.353099	0.001821
776	C	0.923916	0.381064	0.023284
777	C	0.956658	0.381056	0.023316
778	C	0.959393	0.353099	0.00185
779	N	0.929223	0.328445	0.313449
780	H	0.977293	0.399929	0.042236
781	H	0.922153	0.399932	0.04222
782	N	0.898758	0.328443	0.313438
783	C	0.721545	0.115251	0.001773
784	C	0.693588	0.117977	0.023244
785	C	0.693597	0.150725	0.023266
786	C	0.721545	0.181409	0.001782
787	N	0.746197	0.17589	0.313383
788	H	0.674726	0.152493	0.042192
789	H	0.674724	0.097351	0.04219
790	N	0.746199	0.145427	0.31338
791	C	0.959392	0.181413	0.001847
792	C	0.956658	0.150722	0.023309
793	C	0.923909	0.117984	0.023313
794	C	0.893231	0.115253	0.001816
795	N	0.89876	0.14543	0.313422
796	H	0.922134	0.097342	0.042235
797	H	0.977277	0.15248	0.042265
798	N	0.929225	0.175895	0.313438
799	C	0.524725	0.316742	0.332694
800	C	0.991574	0.317094	0.334652
801	C	0.991112	0.35018	0.335731
802	C	0.524721	0.382375	0.336284
803	C	0.558333	0.383798	0.335318
804	C	0.557896	0.350258	0.334162
805	C	0.959888	0.283745	0.341668
806	C	0.589662	0.34863	0.340566
807	H	0.524714	0.406068	0.332614
808	C	0.524724	0.283099	0.332697
809	C	0.991567	0.249599	0.334652
810	C	0.991114	0.216053	0.335741
811	C	0.52472	0.217465	0.336311
812	C	0.558332	0.24965	0.335345
813	C	0.557889	0.282749	0.334179
814	C	0.95986	0.251247	0.341555
815	H	0.524714	0.193763	0.332648
816	C	0.589661	0.316144	0.340579
817	H	0.936237	0.229075	0.350371
818	H	0.936239	0.282292	0.350358
819	H	0.613406	0.317659	0.348862
820	H	0.613407	0.370862	0.348842
821	C	0.757897	0.283096	0.665922
822	C	0.757548	0.249592	0.667861
823	C	0.724461	0.216047	0.668977
824	C	0.692275	0.217468	0.669513
825	C	0.690838	0.249647	0.66859
826	C	0.724378	0.282747	0.667381
827	C	0.790901	0.251254	0.674851
828	C	0.726018	0.316145	0.673834
829	H	0.668571	0.193758	0.665945
830	C	0.79154	0.316742	0.665928
831	C	0.825045	0.317094	0.667907
832	C	0.858593	0.350177	0.669013
833	C	0.857169	0.382364	0.669517
834	C	0.824988	0.383801	0.66858
835	C	0.791889	0.350255	0.667398
836	C	0.82338	0.283742	0.674914
837	H	0.880878	0.406066	0.665932
838	C	0.758495	0.348641	0.673741
839	H	0.845563	0.282287	0.683666
840	H	0.792358	0.22908	0.683646
841	H	0.756981	0.370846	0.682171
842	H	0.703793	0.317654	0.682157
843	C	0.791543	0.049915	0.665888
844	C	0.825044	0.083072	0.667894
845	C	0.858592	0.08353	0.66899
846	C	0.857174	0.04992	0.669537
847	C	0.824996	0.016309	0.668567
848	C	0.791899	0.01675	0.667334
849	C	0.823388	0.114767	0.674864
850	C	0.758498	0.484985	0.673725
851	H	0.880893	0.049949	0.665935
852	C	0.757901	0.049917	0.665878
853	C	0.757552	0.083074	0.667844
854	C	0.724464	0.08353	0.668957
855	C	0.692277	0.049921	0.669493
856	C	0.69084	0.016307	0.668554
857	C	0.72438	0.016749	0.667321
858	C	0.790904	0.114762	0.674854
859	H	0.668573	0.049929	0.665928
860	C	0.726008	0.48498	0.673698
861	H	0.792342	0.138382	0.68366
862	H	0.845566	0.138385	0.68368
863	H	0.703805	0.461265	0.682147
864	H	0.75698	0.461262	0.682147
865	C	0.65618	0.246682	0.334588
866	C	0.625584	0.218887	0.356391
867	C	0.592846	0.218898	0.356431
868	C	0.590026	0.246684	0.334635
869	N	0.620092	0.271142	0.645888
870	H	0.5723	0.2002	0.375626
871	H	0.627434	0.200196	0.375596
872	N	0.65056	0.271145	0.645868
873	C	0.82796	0.484616	0.334545
874	C	0.855757	0.48181	0.356331
875	C	0.855743	0.44906	0.356355
876	C	0.827955	0.418458	0.334555
877	N	0.80349	0.42407	0.645831
878	H	0.874444	0.447209	0.375542
879	H	0.874453	0.502346	0.375539
880	N	0.803491	0.454537	0.645828
881	C	0.590025	0.418456	0.334598
882	C	0.592841	0.449068	0.356375
883	C	0.625586	0.481804	0.356371
884	C	0.65618	0.484614	0.334552
885	N	0.650559	0.454529	0.645834
886	H	0.627447	0.502362	0.375556
887	H	0.572309	0.44723	0.375592
888	N	0.620095	0.424062	0.645854
889	C	0.893233	0.3531	0.335155
890	C	0.923916	0.381064	0.356618
891	C	0.956658	0.381056	0.356648
892	C	0.959393	0.3531	0.335185
893	N	0.929223	0.328446	0.646784
894	H	0.977293	0.39993	0.375569
895	H	0.922154	0.399932	0.375552
896	N	0.898758	0.328443	0.646771
897	C	0.721545	0.115251	0.335108
898	C	0.693586	0.117977	0.356578
899	C	0.693597	0.150725	0.356601
900	C	0.721543	0.181409	0.335115
901	N	0.746197	0.17589	0.646717
902	H	0.674726	0.152493	0.375526
903	H	0.674724	0.097351	0.375522
904	N	0.746199	0.145427	0.646714
905	C	0.959393	0.181413	0.335181
906	C	0.956658	0.150722	0.356641
907	C	0.923909	0.117984	0.356648
908	C	0.893231	0.115253	0.335148
909	N	0.89876	0.14543	0.646754
910	H	0.922134	0.097342	0.375569
911	H	0.977277	0.15248	0.375599
912	N	0.929225	0.175895	0.646771
913	C	0.524725	0.316742	0.666028
914	C	0.991574	0.317094	0.667984
915	C	0.991113	0.35018	0.669067
916	C	0.524722	0.382375	0.669616
917	C	0.558333	0.383799	0.668654
918	C	0.557894	0.350258	0.667494
919	C	0.959888	0.283745	0.675001
920	C	0.589662	0.34863	0.673898
921	H	0.524715	0.406068	0.665948
922	C	0.524724	0.283099	0.666032
923	C	0.991567	0.249599	0.667987
924	C	0.991114	0.216053	0.669077
925	C	0.524721	0.217465	0.669643
926	C	0.558332	0.24965	0.668677
927	C	0.557889	0.282749	0.667514
928	C	0.95986	0.251247	0.674891
929	H	0.524714	0.193763	0.665982
930	C	0.589661	0.316145	0.673911
931	H	0.936238	0.229075	0.683703
932	H	0.936239	0.282292	0.68369
933	H	0.613405	0.317657	0.682194
934	H	0.613408	0.370862	0.682174
935	C	0.757898	0.283097	0.999254
936	C	0.75755	0.249592	0.001196
937	C	0.724463	0.216047	0.00231
938	C	0.692274	0.217468	0.002846
939	C	0.690837	0.249647	0.001925
940	C	0.724377	0.282746	0.000716
941	C	0.790903	0.251255	0.008184
942	C	0.726018	0.316144	0.007168
943	H	0.668571	0.193758	0.999277
944	C	0.791539	0.316739	0.99926
945	C	0.825044	0.317094	0.001241
946	C	0.858592	0.350177	0.002348
947	C	0.857169	0.382364	0.00285
948	C	0.824988	0.383801	0.001915
949	C	0.79189	0.350258	0.000732
950	C	0.823381	0.283745	0.008247
951	H	0.880879	0.406066	0.999267
952	C	0.758494	0.34864	0.007076
953	H	0.845562	0.282286	0.017
954	H	0.792357	0.22908	0.016981
955	H	0.756982	0.370848	0.015503
956	H	0.703792	0.317654	0.015492
957	C	0.791543	0.049915	0.999221
958	C	0.825044	0.083072	0.001226
959	C	0.858592	0.08353	0.002322
960	C	0.857176	0.049921	0.002871
961	C	0.824995	0.016309	0.001902
962	C	0.791899	0.01675	0.000667
963	C	0.823388	0.114766	0.008196
964	C	0.758498	0.484987	0.00706
965	H	0.880894	0.049949	0.999267
966	C	0.757901	0.049917	0.999211
967	C	0.757551	0.083073	0.001177
968	C	0.724465	0.08353	0.00229
969	C	0.692276	0.049921	0.002827
970	C	0.69084	0.016307	0.001886
971	C	0.72438	0.016749	0.000653
972	C	0.790904	0.114763	0.008187
973	H	0.668573	0.049929	0.999264
974	C	0.72601	0.484979	0.007031
975	H	0.792342	0.138382	0.016993
976	H	0.845566	0.138385	0.017012
977	H	0.703804	0.461264	0.01548
978	H	0.756981	0.461262	0.015481
979	C	0.656181	0.246682	0.667924
980	C	0.625584	0.218887	0.689724
981	C	0.592846	0.218898	0.689764
982	C	0.590027	0.246684	0.667967
983	N	0.620092	0.271142	0.97922
984	H	0.5723	0.2002	0.708958
985	H	0.627435	0.200196	0.708928
986	N	0.650559	0.271142	0.979203
987	C	0.82796	0.484617	0.667877
988	C	0.855757	0.48181	0.689664
989	C	0.855744	0.449061	0.689687
990	C	0.827956	0.418459	0.667887
991	N	0.803488	0.42407	0.979163
992	H	0.874444	0.447209	0.708875
993	H	0.874451	0.502347	0.708871
994	N	0.803491	0.454537	0.97916
995	C	0.590025	0.418456	0.667931
996	C	0.592841	0.449069	0.689707
997	C	0.625587	0.481804	0.689704
998	C	0.656181	0.484614	0.667884
999	N	0.650559	0.454529	0.979167
1000	H	0.627446	0.50236	0.708888
1001	H	0.57231	0.447231	0.708928
1002	N	0.620093	0.424062	0.97919
1003	C	0.893233	0.3531	0.668487
1004	C	0.923917	0.381065	0.68995
1005	C	0.956655	0.381054	0.689983
1006	C	0.959394	0.3531	0.668517
1007	N	0.929224	0.328446	0.980116
1008	H	0.977294	0.39993	0.708901
1009	H	0.922153	0.39993	0.708888
1010	N	0.898758	0.328443	0.980106
1011	C	0.721546	0.115251	0.66844
1012	C	0.693586	0.117977	0.68991
1013	C	0.693597	0.150725	0.689934
1014	C	0.721543	0.181409	0.668447
1015	N	0.746197	0.17589	0.98005
1016	H	0.674726	0.152493	0.708858
1017	H	0.674724	0.09735	0.708858
1018	N	0.746199	0.145427	0.980046
1019	C	0.959393	0.181413	0.668514
1020	C	0.956658	0.150722	0.689977
1021	C	0.923909	0.117984	0.68998
1022	C	0.893231	0.115253	0.668484
1023	N	0.89876	0.14543	0.98009
1024	H	0.922134	0.097342	0.708901
1025	H	0.977277	0.15248	0.708931
1026	N	0.929226	0.175895	0.980106
1027	C	0.524726	0.816744	0.99936
1028	C	0.991574	0.817095	0.001319
1029	C	0.991113	0.850181	0.002399
1030	C	0.52472	0.882373	0.00295
1031	C	0.558332	0.8838	0.001986
1032	C	0.557895	0.850259	0.000827
1033	C	0.959888	0.783746	0.008335
1034	C	0.589662	0.848631	0.007232
1035	H	0.524713	0.906067	0.99928
1036	C	0.524725	0.783101	0.999364
1037	C	0.991568	0.7496	0.00132
1038	C	0.991114	0.716054	0.002409
1039	C	0.52472	0.717464	0.002977
1040	C	0.558333	0.749651	0.002011
1041	C	0.557889	0.782748	0.000847
1042	C	0.95986	0.751247	0.008223
1043	H	0.524713	0.693764	0.999314
1044	C	0.58966	0.816145	0.007244
1045	H	0.936237	0.729074	0.017038
1046	H	0.936238	0.78229	0.017024
1047	H	0.613404	0.817658	0.015527
1048	H	0.613408	0.870863	0.015507
1049	C	0.757898	0.783098	0.332587
1050	C	0.757548	0.749592	0.334528
1051	C	0.724461	0.716046	0.335645
1052	C	0.692272	0.717467	0.336181
1053	C	0.690838	0.749649	0.335258
1054	C	0.724375	0.782745	0.334049
1055	C	0.790902	0.751255	0.341518
1056	C	0.726019	0.816146	0.340502
1057	H	0.66857	0.693758	0.33261
1058	C	0.791539	0.81674	0.332596
1059	C	0.825042	0.817093	0.334575
1060	C	0.858592	0.850176	0.335681
1061	C	0.85717	0.882365	0.336184
1062	C	0.824987	0.8838	0.335248
1063	C	0.79189	0.850257	0.334065
1064	C	0.823381	0.783744	0.341582
1065	H	0.880879	0.906067	0.332599
1066	C	0.758494	0.848639	0.340409
1067	H	0.845562	0.782285	0.350334
1068	H	0.792355	0.72908	0.350314
1069	H	0.756982	0.870847	0.348835
1070	H	0.703791	0.817656	0.348825
1071	C	0.791543	0.549916	0.332554
1072	C	0.825044	0.583071	0.334558
1073	C	0.858593	0.583531	0.335655
1074	C	0.857174	0.549921	0.336204
1075	C	0.824996	0.516311	0.335235
1076	C	0.791899	0.516749	0.333999
1077	C	0.823387	0.614766	0.341528
1078	C	0.758498	0.984987	0.340392
1079	H	0.880891	0.549948	0.332601
1080	C	0.7579	0.549916	0.332544
1081	C	0.757552	0.583074	0.334512
1082	C	0.724464	0.583531	0.335625
1083	C	0.692276	0.549921	0.336161
1084	C	0.69084	0.516308	0.335218
1085	C	0.724378	0.516749	0.333985
1086	C	0.790904	0.614763	0.341518
1087	H	0.668573	0.549929	0.332596
1088	C	0.726009	0.984981	0.340366
1089	H	0.792341	0.638381	0.350324
1090	H	0.845564	0.638386	0.350344
1091	H	0.703805	0.961266	0.348812
1092	H	0.75698	0.961264	0.348815
1093	C	0.656181	0.746683	0.001256
1094	C	0.625584	0.718888	0.023057
1095	C	0.592846	0.718899	0.023097
1096	C	0.590025	0.746685	0.0013
1097	N	0.620092	0.771143	0.312554
1098	H	0.5723	0.700201	0.042291
1099	H	0.627431	0.700195	0.042262
1100	N	0.650559	0.771143	0.312535
1101	C	0.82796	0.984617	0.001211
1102	C	0.855757	0.981811	0.022998
1103	C	0.855744	0.949061	0.023021
1104	C	0.827956	0.91846	0.00122
1105	N	0.803488	0.924071	0.312496
1106	H	0.874444	0.94721	0.042207
1107	H	0.874453	0.002347	0.042205
1108	N	0.803491	0.954538	0.312494
1109	C	0.590025	0.918457	0.001264
1110	C	0.59284	0.94907	0.023041
1111	C	0.625587	0.981805	0.023038
1112	C	0.656181	0.984615	0.001217
1113	N	0.65056	0.95453	0.3125
1114	H	0.627446	0.002361	0.042221
1115	H	0.572309	0.947229	0.042261
1116	N	0.620094	0.924063	0.312522
1117	C	0.893234	0.853101	0.001821
1118	C	0.923917	0.881066	0.023284
1119	C	0.956655	0.881055	0.023316
1120	C	0.959394	0.853101	0.00185
1121	N	0.929222	0.828444	0.313449
1122	H	0.977294	0.899931	0.042236
1123	H	0.922153	0.899931	0.04222
1124	N	0.898758	0.828444	0.313438
1125	C	0.721545	0.61525	0.001773
1126	C	0.693586	0.617976	0.023244
1127	C	0.693597	0.650725	0.023266
1128	C	0.721544	0.68141	0.001782
1129	N	0.746197	0.675891	0.313383
1130	H	0.674726	0.652494	0.042192
1131	H	0.674724	0.597351	0.04219
1132	N	0.746198	0.645426	0.31338
1133	C	0.959392	0.681413	0.001847
1134	C	0.956658	0.650723	0.023309
1135	C	0.923909	0.617984	0.023313
1136	C	0.893231	0.615252	0.001816
1137	N	0.898761	0.645432	0.313422
1138	H	0.922135	0.597343	0.042235
1139	H	0.977277	0.65248	0.042265
1140	N	0.929226	0.675896	0.313438
1141	C	0.524726	0.816743	0.332694
1142	C	0.991575	0.817096	0.334652
1143	C	0.991113	0.850181	0.335731
1144	C	0.52472	0.882374	0.336284
1145	C	0.558333	0.8838	0.335318
1146	C	0.557895	0.850259	0.334162
1147	C	0.959887	0.783744	0.341668
1148	C	0.589663	0.848631	0.340566
1149	H	0.524714	0.90607	0.332614
1150	C	0.524725	0.7831	0.332697
1151	C	0.991568	0.7496	0.334652
1152	C	0.991112	0.716054	0.335741
1153	C	0.52472	0.717465	0.336311
1154	C	0.558332	0.749649	0.335345
1155	C	0.557889	0.782748	0.334179
1156	C	0.95986	0.751247	0.341555
1157	H	0.524713	0.693763	0.332648
1158	C	0.58966	0.816146	0.340579
1159	H	0.936237	0.729075	0.350371
1160	H	0.936238	0.78229	0.350358
1161	H	0.613405	0.817658	0.348862
1162	H	0.613408	0.870863	0.348842
1163	C	0.757898	0.783098	0.665922
1164	C	0.757549	0.749593	0.667861
1165	C	0.724461	0.716047	0.668977
1166	C	0.692272	0.717468	0.669513
1167	C	0.690837	0.749646	0.66859
1168	C	0.724375	0.782745	0.667381
1169	C	0.790902	0.751256	0.674851
1170	C	0.726019	0.816146	0.673834
1171	H	0.668571	0.693758	0.665945
1172	C	0.79154	0.816741	0.665928
1173	C	0.825042	0.817093	0.667907
1174	C	0.858592	0.850176	0.669013
1175	C	0.857168	0.882366	0.669517
1176	C	0.824988	0.8838	0.66858
1177	C	0.79189	0.850257	0.667398
1178	C	0.823381	0.783744	0.674914
1179	H	0.880879	0.906067	0.665932
1180	C	0.758494	0.84864	0.673741
1181	H	0.845562	0.782285	0.683666
1182	H	0.792355	0.72908	0.683646
1183	H	0.756982	0.870848	0.682171
1184	H	0.70379	0.817653	0.682157
1185	C	0.791543	0.549916	0.665888
1186	C	0.825044	0.583072	0.667894
1187	C	0.858592	0.583529	0.66899
1188	C	0.857175	0.549921	0.669537
1189	C	0.824997	0.516311	0.668567
1190	C	0.791897	0.51675	0.667334
1191	C	0.823388	0.614766	0.674864
1192	C	0.758498	0.984987	0.673725
1193	H	0.880891	0.549948	0.665935
1194	C	0.7579	0.549916	0.665878
1195	C	0.757552	0.583074	0.667844
1196	C	0.724464	0.583532	0.668957
1197	C	0.692277	0.549921	0.669493
1198	C	0.690841	0.516308	0.668554
1199	C	0.724378	0.51675	0.667321
1200	C	0.790904	0.614763	0.674854
1201	H	0.668573	0.549929	0.665928
1202	C	0.726007	0.984979	0.673698
1203	H	0.792342	0.638381	0.68366
1204	H	0.845565	0.638387	0.68368
1205	H	0.703804	0.961264	0.682147
1206	H	0.75698	0.961264	0.682147
1207	C	0.656181	0.746683	0.334588
1208	C	0.625581	0.718886	0.356391
1209	C	0.592847	0.718899	0.356431
1210	C	0.590026	0.746686	0.334635
1211	N	0.620093	0.771143	0.645888
1212	H	0.5723	0.700201	0.375626
1213	H	0.627432	0.700196	0.375596
1214	N	0.650559	0.771143	0.645868
1215	C	0.827961	0.984618	0.334545
1216	C	0.855758	0.981811	0.356331
1217	C	0.855744	0.949062	0.356355
1218	C	0.827956	0.91846	0.334555
1219	N	0.803489	0.924071	0.645831
1220	H	0.874445	0.94721	0.375542
1221	H	0.874453	0.002347	0.375539
1222	N	0.803492	0.954538	0.645828
1223	C	0.590025	0.918457	0.334598
1224	C	0.59284	0.94907	0.356375
1225	C	0.625587	0.981806	0.356371
1226	C	0.656181	0.984615	0.334552
1227	N	0.65056	0.95453	0.645834
1228	H	0.627446	0.002361	0.375556
1229	H	0.572309	0.947229	0.375592
1230	N	0.620094	0.924063	0.645854
1231	C	0.893233	0.853099	0.335155
1232	C	0.923917	0.881066	0.356618
1233	C	0.956655	0.881055	0.356648
1234	C	0.959394	0.853101	0.335185
1235	N	0.929223	0.828445	0.646784
1236	H	0.977294	0.899931	0.375569
1237	H	0.922151	0.899931	0.375552
1238	N	0.898759	0.828445	0.646771
1239	C	0.721545	0.61525	0.335108
1240	C	0.693586	0.617976	0.356578
1241	C	0.693597	0.650726	0.356601
1242	C	0.721544	0.681411	0.335115
1243	N	0.746198	0.675891	0.646717
1244	H	0.674726	0.652494	0.375526
1245	H	0.674724	0.597351	0.375522
1246	N	0.746199	0.645427	0.646714
1247	C	0.959393	0.681413	0.335181
1248	C	0.956658	0.650723	0.356641
1249	C	0.923909	0.617984	0.356648
1250	C	0.893231	0.615253	0.335148
1251	N	0.898761	0.645432	0.646754
1252	H	0.922135	0.597343	0.375569
1253	H	0.977277	0.65248	0.375599
1254	N	0.929224	0.675896	0.646771
1255	C	0.524726	0.816743	0.666028
1256	C	0.991575	0.817096	0.667984
1257	C	0.991113	0.850182	0.669067
1258	C	0.52472	0.882374	0.669616
1259	C	0.558333	0.8838	0.668654
1260	C	0.557895	0.85026	0.667494
1261	C	0.959887	0.783744	0.675001
1262	C	0.589663	0.848632	0.673898
1263	H	0.524714	0.90607	0.665948
1264	C	0.524725	0.783101	0.666032
1265	C	0.991568	0.749601	0.667987
1266	C	0.991112	0.716055	0.669077
1267	C	0.52472	0.717465	0.669643
1268	C	0.558332	0.749649	0.668677
1269	C	0.557889	0.782748	0.667514
1270	C	0.959861	0.751248	0.674891
1271	H	0.524713	0.693763	0.665982
1272	C	0.589661	0.816146	0.673911
1273	H	0.936237	0.729075	0.683703
1274	H	0.936239	0.782291	0.68369
1275	H	0.613405	0.817659	0.682194
1276	H	0.613408	0.870864	0.682174
1277	C	0.757896	0.783098	0.999254
1278	C	0.757548	0.749592	0.001196
1279	C	0.724462	0.716049	0.00231
1280	C	0.692274	0.717467	0.002846
1281	C	0.690838	0.749648	0.001925
1282	C	0.724377	0.782745	0.000716
1283	C	0.790901	0.751255	0.008184
1284	C	0.726018	0.816145	0.007168
1285	H	0.668571	0.693758	0.999277
1286	C	0.79154	0.816741	0.99926
1287	C	0.825041	0.817093	0.001241
1288	C	0.858593	0.850178	0.002348
1289	C	0.857169	0.882365	0.00285
1290	C	0.824987	0.8838	0.001915
1291	C	0.791889	0.850256	0.000732
1292	C	0.823381	0.783743	0.008247
1293	H	0.880879	0.906067	0.999267
1294	C	0.758493	0.848639	0.007076
1295	H	0.845561	0.782285	0.017
1296	H	0.792357	0.72908	0.016981
1297	H	0.756982	0.870847	0.015503
1298	H	0.703793	0.817655	0.015492
1299	C	0.791544	0.549916	0.999221
1300	C	0.825043	0.583071	0.001226
1301	C	0.858592	0.583531	0.002322
1302	C	0.857174	0.549921	0.002871
1303	C	0.824996	0.51631	0.001902
1304	C	0.791899	0.516749	0.000667
1305	C	0.823388	0.614768	0.008196
1306	C	0.758498	0.984986	0.00706
1307	H	0.880891	0.549948	0.999267
1308	C	0.757901	0.549916	0.999211
1309	C	0.757551	0.583074	0.001177
1310	C	0.724463	0.583531	0.00229
1311	C	0.692276	0.549921	0.002827
1312	C	0.69084	0.516308	0.001886
1313	C	0.724377	0.516749	0.000653
1314	C	0.790904	0.614763	0.008187
1315	H	0.668574	0.54993	0.999264
1316	C	0.726008	0.984981	0.007031
1317	H	0.792342	0.638383	0.016993
1318	H	0.845564	0.638386	0.017012
1319	H	0.703805	0.961266	0.015479
1320	H	0.75698	0.961263	0.015481
1321	C	0.656179	0.746683	0.667924
1322	C	0.625581	0.718886	0.689724
1323	C	0.592847	0.7189	0.689764
1324	C	0.590026	0.746686	0.667967
1325	N	0.620093	0.771144	0.97922
1326	H	0.572301	0.700201	0.708958
1327	H	0.627432	0.700196	0.708928
1328	N	0.650559	0.771144	0.979203
1329	C	0.827961	0.984618	0.667877
1330	C	0.855758	0.981811	0.689664
1331	C	0.855744	0.949062	0.689687
1332	C	0.827956	0.91846	0.667887
1333	N	0.803489	0.924071	0.979163
1334	H	0.874443	0.947211	0.708875
1335	H	0.874453	0.002347	0.708871
1336	N	0.803492	0.954539	0.97916
1337	C	0.590025	0.918458	0.667931
1338	C	0.592839	0.949067	0.689707
1339	C	0.625587	0.981806	0.689704
1340	C	0.656181	0.984615	0.667884
1341	N	0.65056	0.954531	0.979167
1342	H	0.627446	0.002361	0.708888
1343	H	0.572309	0.94723	0.708928
1344	N	0.620094	0.924063	0.97919
1345	C	0.893233	0.853099	0.668487
1346	C	0.923916	0.881063	0.68995
1347	C	0.956655	0.881055	0.689983
1348	C	0.959391	0.853099	0.668517
1349	N	0.929223	0.828445	0.980116
1350	H	0.977294	0.899932	0.708901
1351	H	0.922151	0.899932	0.708888
1352	N	0.898758	0.828442	0.980106
1353	C	0.721545	0.61525	0.66844
1354	C	0.693586	0.617977	0.68991
1355	C	0.693597	0.650726	0.689934
1356	C	0.721543	0.681408	0.668447
1357	N	0.746198	0.675891	0.98005
1358	H	0.674727	0.652494	0.708858
1359	H	0.674725	0.597351	0.708858
1360	N	0.746199	0.645427	0.980046
1361	C	0.959393	0.681414	0.668514
1362	C	0.956659	0.650723	0.689977
1363	C	0.923907	0.617985	0.68998
1364	C	0.893232	0.615253	0.668484
1365	N	0.89876	0.64543	0.98009
1366	H	0.922134	0.597341	0.708901
1367	H	0.977278	0.652481	0.708931
1368	N	0.929223	0.675894	0.980106
