data_C684H396N60O36_2018-02-15_10:40:52
#******************************************
#
# CIF file created by Zeo++
# Zeo++ is an open source package to
# analyze microporous materials
#
#*******************************************

_cell_length_a		50.6442   
_cell_length_b		50.6442   
_cell_length_c		29.2722   
_cell_angle_alpha		90   
_cell_angle_beta		90   
_cell_angle_gamma		120   

_symmetry_space_group_name_H-M		'P1'
_symmetry_Int_Tables_number		1
_symmetry_cell_setting		Monoclinic

loop_
_symmetry_equiv_pos_as_xyz
'+x,+y,+z'

loop_
_atom_site_label
_atom_site_type_symbol
_atom_site_fract_x
_atom_site_fract_y
_atom_site_fract_z
1	N	0.184892	0.344688	0.01077
2	C	0.201429	0.32836	0.011877
3	C	0.201202	0.377607	0.011679
4	C	0.152001	0.327989	0.01007
5	C	0.134813	0.309338	0.047062
6	C	0.102599	0.293111	0.046551
7	C	0.085544	0.29514	0.009584
8	C	0.103017	0.314103	0.972669
9	C	0.135327	0.33	0.972809
10	C	0.214398	0.323942	0.971951
11	C	0.231361	0.308672	0.97311
12	C	0.235324	0.295498	0.01371
13	C	0.221182	0.299374	0.053212
14	C	0.205452	0.315898	0.052653
15	C	0.223308	0.395236	0.978405
16	C	0.239587	0.427448	0.979956
17	C	0.234024	0.444352	0.013637
18	C	0.211034	0.42626	0.046049
19	C	0.195573	0.39398	0.04571
20	H	0.241137	0.307728	0.943156
21	H	0.211777	0.332154	0.941441
22	H	0.196662	0.318584	0.082529
23	H	0.221482	0.289682	0.083504
24	H	0.14567	0.307336	0.075039
25	H	0.091708	0.279185	0.073677
26	H	0.228239	0.38472	0.952848
27	H	0.256134	0.438383	0.955875
28	H	0.20447	0.436301	0.070201
29	H	0.179392	0.382294	0.070077
30	H	0.1468	0.343486	0.945517
31	H	0.092297	0.317086	0.94523
32	N	0.352559	0.178511	0.010845
33	C	0.336239	0.195108	0.011767
34	C	0.336004	0.145646	0.011887
35	C	0.385452	0.194708	0.010138
36	C	0.402124	0.213574	0.973024
37	C	0.434432	0.23	0.972884
38	C	0.451907	0.228329	0.009642
39	C	0.434863	0.20903	0.046428
40	C	0.402649	0.193055	0.046965
41	C	0.314243	0.190731	0.97835
42	C	0.29794	0.206637	0.979898
43	C	0.30337	0.228931	0.013784
44	C	0.326262	0.233783	0.046329
45	C	0.341761	0.217	0.045945
46	C	0.32306	0.128291	0.971914
47	C	0.306054	0.09606	0.973028
48	C	0.302042	0.07895	0.013646
49	C	0.316199	0.096886	0.053187
50	C	0.331955	0.129136	0.052658
51	H	0.281493	0.201179	0.955677
52	H	0.309435	0.175396	0.952657
53	H	0.357875	0.221431	0.070396
54	H	0.332699	0.250333	0.070575
55	H	0.390648	0.215727	0.945859
56	H	0.445154	0.243853	0.945582
57	H	0.325711	0.139146	0.941417
58	H	0.296268	0.085286	0.943085
59	H	0.315889	0.086792	0.08342
60	H	0.340748	0.140594	0.08255
61	H	0.391804	0.180048	0.074827
62	H	0.445772	0.205862	0.073412
63	C	0.286707	0.245625	0.347698
64	C	0.281227	0.257837	0.05463
65	C	0.26533	0.274036	0.054256
66	C	0.252377	0.279073	0.347691
67	C	0.257518	0.266401	0.307521
68	C	0.27425	0.250814	0.307388
69	H	0.277457	0.243498	0.276466
70	H	0.248677	0.267878	0.276943
71	N	0.265766	0.28307	0.097152
72	O	0.289723	0.255343	0.097907
73	C	0.280398	0.272203	0.122003
74	H	0.283309	0.275329	0.15649
75	C	0.284947	0.045527	0.347616
76	C	0.270934	0.027799	0.05404
77	C	0.255129	0.495705	0.053828
78	C	0.250652	0.477757	0.347496
79	C	0.264161	0.49547	0.307548
80	C	0.280883	0.027789	0.307721
81	H	0.290569	0.038194	0.277509
82	H	0.261792	0.485019	0.276779
83	N	0.246557	0.486911	0.096803
84	O	0.270343	0.038592	0.096502
85	C	0.255965	0.012366	0.121292
86	H	0.251893	0.012113	0.155497
87	C	0.485095	0.245128	0.343025
88	C	0.502607	0.257582	0.050004
89	C	0.034618	0.27361	0.049661
90	C	0.052344	0.278731	0.342943
91	C	0.034882	0.266378	0.302494
92	C	0.502507	0.250208	0.302514
93	H	0.491665	0.241366	0.27216
94	H	0.04569	0.268348	0.272118
95	N	0.043507	0.282783	0.092426
96	O	0.491606	0.257011	0.092756
97	C	0.517974	0.272358	0.117193
98	H	0.518231	0.276522	0.151367
99	N	0.184892	0.344688	0.344104
100	C	0.201429	0.32836	0.345211
101	C	0.201202	0.377607	0.345009
102	C	0.152001	0.327989	0.3434
103	C	0.134813	0.309338	0.380394
104	C	0.102599	0.293111	0.379885
105	C	0.085544	0.29514	0.342915
106	C	0.103017	0.314103	0.306001
107	C	0.135327	0.33	0.30614
108	C	0.214398	0.323942	0.305284
109	C	0.231361	0.308672	0.306441
110	C	0.235324	0.295498	0.347042
111	C	0.221182	0.299374	0.386547
112	C	0.205452	0.315898	0.385987
113	C	0.223308	0.395236	0.311739
114	C	0.239587	0.427448	0.31329
115	C	0.234024	0.444352	0.34697
116	C	0.211034	0.42626	0.379383
117	C	0.195573	0.39398	0.379045
118	H	0.241137	0.307728	0.276488
119	H	0.211777	0.332154	0.274774
120	H	0.196662	0.318584	0.415865
121	H	0.221482	0.289682	0.416839
122	H	0.14567	0.307336	0.408373
123	H	0.091708	0.279185	0.40701
124	H	0.228239	0.38472	0.286181
125	H	0.256134	0.438383	0.289208
126	H	0.20447	0.436301	0.403536
127	H	0.179392	0.382294	0.403409
128	H	0.1468	0.343486	0.278849
129	H	0.092297	0.317086	0.27856
130	N	0.352559	0.178511	0.344176
131	C	0.336239	0.195108	0.345102
132	C	0.336004	0.145646	0.345218
133	C	0.385452	0.194708	0.343472
134	C	0.402124	0.213574	0.306357
135	C	0.434432	0.23	0.306215
136	C	0.451907	0.228329	0.342973
137	C	0.434863	0.20903	0.379762
138	C	0.402649	0.193055	0.380299
139	C	0.314243	0.190731	0.311681
140	C	0.29794	0.206637	0.313229
141	C	0.30337	0.228931	0.347117
142	C	0.326262	0.233783	0.379663
143	C	0.341761	0.217	0.379277
144	C	0.32306	0.128291	0.305247
145	C	0.306054	0.09606	0.306359
146	C	0.302042	0.07895	0.346981
147	C	0.316199	0.096886	0.38652
148	C	0.331955	0.129136	0.38599
149	H	0.281493	0.201179	0.28901
150	H	0.309435	0.175396	0.28599
151	H	0.357875	0.221431	0.403731
152	H	0.332699	0.250333	0.403908
153	H	0.390648	0.215727	0.27919
154	H	0.445154	0.243853	0.278914
155	H	0.325711	0.139146	0.274749
156	H	0.296268	0.085286	0.276417
157	H	0.315889	0.086792	0.416753
158	H	0.340748	0.140594	0.415882
159	H	0.391804	0.180048	0.408161
160	H	0.445772	0.205862	0.406744
161	C	0.286707	0.245625	0.681034
162	C	0.281227	0.257837	0.387965
163	C	0.26533	0.274036	0.387589
164	C	0.252377	0.279073	0.681024
165	C	0.257518	0.266401	0.640853
166	C	0.27425	0.250814	0.640723
167	H	0.277457	0.243498	0.6098
168	H	0.248677	0.267878	0.610278
169	N	0.265766	0.28307	0.430486
170	O	0.289723	0.255343	0.431241
171	C	0.280398	0.272203	0.455336
172	H	0.283309	0.275329	0.489822
173	C	0.284947	0.045527	0.680949
174	C	0.270934	0.027799	0.387374
175	C	0.255129	0.495705	0.387162
176	C	0.250652	0.477757	0.680829
177	C	0.264161	0.49547	0.640884
178	C	0.280883	0.027789	0.641054
179	H	0.290569	0.038194	0.610841
180	H	0.261792	0.485019	0.610114
181	N	0.246557	0.486911	0.430138
182	O	0.270343	0.038592	0.429834
183	C	0.255965	0.012366	0.454625
184	H	0.251893	0.012113	0.488832
185	C	0.485095	0.245128	0.676357
186	C	0.502607	0.257582	0.383339
187	C	0.034618	0.27361	0.382994
188	C	0.052344	0.278731	0.676275
189	C	0.034882	0.266378	0.635828
190	C	0.502507	0.250208	0.635848
191	H	0.491665	0.241366	0.605495
192	H	0.04569	0.268348	0.605451
193	N	0.043507	0.282783	0.425762
194	O	0.491606	0.257011	0.42609
195	C	0.517974	0.272358	0.450526
196	H	0.518231	0.276522	0.484701
197	N	0.184892	0.344688	0.677437
198	C	0.201429	0.32836	0.678544
199	C	0.201202	0.377607	0.678342
200	C	0.152001	0.327989	0.676733
201	C	0.134813	0.309338	0.713731
202	C	0.102599	0.293111	0.713218
203	C	0.085544	0.29514	0.676248
204	C	0.103017	0.314103	0.639336
205	C	0.135327	0.33	0.639473
206	C	0.214398	0.323942	0.638619
207	C	0.231361	0.308672	0.639777
208	C	0.235324	0.295498	0.680378
209	C	0.221182	0.299374	0.71988
210	C	0.205452	0.315898	0.71932
211	C	0.223308	0.395236	0.645072
212	C	0.239587	0.427448	0.646623
213	C	0.234024	0.444352	0.680303
214	C	0.211034	0.42626	0.712716
215	C	0.195573	0.39398	0.712378
216	H	0.241137	0.307728	0.60982
217	H	0.211777	0.332154	0.608109
218	H	0.196662	0.318584	0.749198
219	H	0.221482	0.289682	0.750171
220	H	0.14567	0.307336	0.741706
221	H	0.091708	0.279185	0.740343
222	H	0.228239	0.38472	0.619515
223	H	0.256134	0.438383	0.622542
224	H	0.20447	0.436301	0.736869
225	H	0.179392	0.382294	0.736746
226	H	0.1468	0.343486	0.612184
227	H	0.092297	0.317086	0.611894
228	N	0.352559	0.178511	0.677512
229	C	0.336239	0.195108	0.678435
230	C	0.336004	0.145646	0.678554
231	C	0.385452	0.194708	0.676805
232	C	0.402124	0.213574	0.639691
233	C	0.434432	0.23	0.639548
234	C	0.451907	0.228329	0.67631
235	C	0.434863	0.20903	0.713095
236	C	0.402649	0.193055	0.713632
237	C	0.314243	0.190731	0.645014
238	C	0.29794	0.206637	0.646565
239	C	0.30337	0.228931	0.68045
240	C	0.326262	0.233783	0.712996
241	C	0.341761	0.217	0.712614
242	C	0.32306	0.128291	0.638581
243	C	0.306054	0.09606	0.639691
244	C	0.302042	0.07895	0.680313
245	C	0.316199	0.096886	0.719856
246	C	0.331955	0.129136	0.719326
247	H	0.281493	0.201179	0.622344
248	H	0.309435	0.175396	0.619324
249	H	0.357875	0.221431	0.737063
250	H	0.332699	0.250333	0.737241
251	H	0.390648	0.215727	0.612522
252	H	0.445154	0.243853	0.612249
253	H	0.325711	0.139146	0.608085
254	H	0.296268	0.085286	0.609752
255	H	0.315889	0.086792	0.750086
256	H	0.340748	0.140594	0.749218
257	H	0.391804	0.180048	0.741494
258	H	0.445772	0.205862	0.74008
259	C	0.286707	0.245625	0.014365
260	C	0.281227	0.257837	0.721298
261	C	0.26533	0.274036	0.720922
262	C	0.252377	0.279073	0.014358
263	C	0.257518	0.266401	0.974189
264	C	0.27425	0.250814	0.974056
265	H	0.277457	0.243498	0.943132
266	H	0.248677	0.267878	0.943611
267	N	0.265766	0.28307	0.763819
268	O	0.289723	0.255343	0.764574
269	C	0.280398	0.272203	0.788672
270	H	0.283309	0.275329	0.823159
271	C	0.284947	0.045527	0.014281
272	C	0.270934	0.027799	0.720707
273	C	0.255129	0.495705	0.720495
274	C	0.250652	0.477757	0.014161
275	C	0.264161	0.49547	0.974216
276	C	0.280883	0.027789	0.974387
277	H	0.290569	0.038194	0.944178
278	H	0.261792	0.485019	0.943447
279	N	0.246557	0.486911	0.763471
280	O	0.270343	0.038592	0.76317
281	C	0.255965	0.012366	0.787961
282	H	0.251893	0.012113	0.822165
283	C	0.485095	0.245128	0.00969
284	C	0.502607	0.257582	0.716672
285	C	0.034618	0.27361	0.71633
286	C	0.052344	0.278731	0.009612
287	C	0.034882	0.266378	0.96916
288	C	0.502507	0.250208	0.969181
289	H	0.491665	0.241366	0.938828
290	H	0.04569	0.268348	0.938787
291	N	0.043507	0.282783	0.759095
292	O	0.491606	0.257011	0.759423
293	C	0.517974	0.272358	0.783862
294	H	0.518231	0.276522	0.818034
295	N	0.184892	0.844688	0.01077
296	C	0.20143	0.828361	0.011877
297	C	0.201201	0.877608	0.011679
298	C	0.152	0.82799	0.01007
299	C	0.134814	0.809339	0.047062
300	C	0.102599	0.793112	0.046552
301	C	0.085543	0.795141	0.009584
302	C	0.103017	0.814104	0.972669
303	C	0.135326	0.829998	0.972809
304	C	0.214396	0.82394	0.971951
305	C	0.23136	0.808671	0.97311
306	C	0.235324	0.795499	0.01371
307	C	0.221181	0.799375	0.053213
308	C	0.205451	0.815896	0.052653
309	C	0.223308	0.895237	0.978405
310	C	0.239586	0.927449	0.979956
311	C	0.234024	0.944351	0.013637
312	C	0.211035	0.926261	0.046049
313	C	0.195573	0.89398	0.045711
314	H	0.241136	0.807727	0.943156
315	H	0.211777	0.832153	0.941441
316	H	0.196662	0.818584	0.08253
317	H	0.221482	0.789683	0.083504
318	H	0.145671	0.807337	0.07504
319	H	0.091708	0.779183	0.073677
320	H	0.228236	0.884719	0.952848
321	H	0.256132	0.938382	0.955875
322	H	0.204472	0.936302	0.070202
323	H	0.179392	0.882295	0.070078
324	H	0.1468	0.843487	0.945517
325	H	0.092295	0.817084	0.94523
326	N	0.352559	0.678511	0.010845
327	C	0.33624	0.69511	0.011771
328	C	0.336004	0.645647	0.011887
329	C	0.385452	0.694708	0.010138
330	C	0.402124	0.713576	0.973024
331	C	0.434433	0.730001	0.972884
332	C	0.451907	0.72833	0.009642
333	C	0.434863	0.709029	0.046429
334	C	0.40265	0.693055	0.046966
335	C	0.314243	0.69073	0.97835
336	C	0.29794	0.706637	0.979898
337	C	0.303369	0.728929	0.013785
338	C	0.326262	0.733783	0.046329
339	C	0.341761	0.717	0.045945
340	C	0.323061	0.628291	0.971914
341	C	0.306054	0.596061	0.973028
342	C	0.302043	0.578951	0.013647
343	C	0.316197	0.596886	0.053188
344	C	0.331954	0.629137	0.052659
345	H	0.281492	0.701179	0.95568
346	H	0.309434	0.675396	0.95266
347	H	0.357876	0.721433	0.070396
348	H	0.332699	0.750334	0.070574
349	H	0.390647	0.715728	0.945859
350	H	0.445155	0.743854	0.945582
351	H	0.325712	0.639146	0.941417
352	H	0.296269	0.585288	0.943085
353	H	0.315888	0.586792	0.083421
354	H	0.340747	0.640594	0.082551
355	H	0.391804	0.680048	0.074827
356	H	0.445772	0.705862	0.073412
357	C	0.286707	0.745626	0.347698
358	C	0.281227	0.757838	0.054631
359	C	0.265331	0.774037	0.054256
360	C	0.252377	0.779074	0.347691
361	C	0.257518	0.766401	0.307521
362	C	0.274249	0.750815	0.307389
363	H	0.277456	0.743496	0.276467
364	H	0.248675	0.767877	0.276943
365	N	0.265766	0.783071	0.097152
366	O	0.289724	0.755343	0.097907
367	C	0.280399	0.772204	0.122003
368	H	0.28331	0.775332	0.15649
369	C	0.284946	0.545526	0.347616
370	C	0.270932	0.527799	0.05404
371	C	0.25513	0.995706	0.053829
372	C	0.250652	0.977758	0.347496
373	C	0.264161	0.995471	0.307548
374	C	0.280883	0.52779	0.307722
375	H	0.290571	0.538194	0.27751
376	H	0.26179	0.98502	0.276778
377	N	0.246561	0.986912	0.096803
378	O	0.270341	0.538593	0.096501
379	C	0.255962	0.512368	0.121291
380	H	0.251888	0.512115	0.155495
381	C	0.485095	0.745129	0.343025
382	C	0.502607	0.757582	0.050005
383	C	0.034617	0.773611	0.049662
384	C	0.052343	0.77873	0.342943
385	C	0.03488	0.766376	0.302494
386	C	0.502508	0.750209	0.302515
387	H	0.491664	0.741367	0.272161
388	H	0.045689	0.768349	0.272119
389	N	0.043508	0.782783	0.092427
390	O	0.491606	0.757012	0.092757
391	C	0.517974	0.772357	0.117194
392	H	0.51823	0.77652	0.151368
393	N	0.184892	0.844688	0.344104
394	C	0.20143	0.828361	0.345211
395	C	0.201201	0.877608	0.345009
396	C	0.152	0.82799	0.3434
397	C	0.134814	0.809339	0.380398
398	C	0.102599	0.793112	0.379885
399	C	0.085543	0.795141	0.342915
400	C	0.103017	0.814104	0.306002
401	C	0.135326	0.829998	0.306141
402	C	0.214396	0.82394	0.305284
403	C	0.23136	0.808671	0.306442
404	C	0.235324	0.795499	0.347045
405	C	0.221181	0.799375	0.386547
406	C	0.205451	0.815896	0.385987
407	C	0.223308	0.895237	0.311738
408	C	0.239586	0.927449	0.313289
409	C	0.234024	0.944351	0.34697
410	C	0.211035	0.926261	0.379383
411	C	0.195573	0.89398	0.379045
412	H	0.241136	0.807727	0.276488
413	H	0.211777	0.832153	0.274775
414	H	0.196662	0.818584	0.415865
415	H	0.221482	0.789683	0.416839
416	H	0.145671	0.807337	0.408373
417	H	0.091708	0.779183	0.40701
418	H	0.228236	0.884719	0.28618
419	H	0.256132	0.938382	0.289207
420	H	0.204472	0.936302	0.403536
421	H	0.179392	0.882295	0.403413
422	H	0.1468	0.843487	0.27885
423	H	0.092295	0.817084	0.278562
424	N	0.352559	0.678511	0.344179
425	C	0.33624	0.69511	0.345102
426	C	0.336004	0.645647	0.345221
427	C	0.385452	0.694708	0.343472
428	C	0.402124	0.713576	0.306358
429	C	0.434433	0.730001	0.306216
430	C	0.451907	0.72833	0.342977
431	C	0.434863	0.709029	0.379762
432	C	0.40265	0.693055	0.380299
433	C	0.314243	0.69073	0.311683
434	C	0.29794	0.706637	0.31323
435	C	0.303369	0.728929	0.347117
436	C	0.326262	0.733783	0.379663
437	C	0.341761	0.717	0.379277
438	C	0.323061	0.628291	0.305248
439	C	0.306054	0.596061	0.306359
440	C	0.302043	0.578951	0.346981
441	C	0.316197	0.596886	0.386523
442	C	0.331954	0.629137	0.385994
443	H	0.281492	0.701179	0.289012
444	H	0.309434	0.675396	0.285992
445	H	0.357876	0.721433	0.403731
446	H	0.332699	0.750334	0.403908
447	H	0.390647	0.715728	0.279191
448	H	0.445155	0.743854	0.278916
449	H	0.325712	0.639146	0.274749
450	H	0.296269	0.585288	0.276417
451	H	0.315888	0.586792	0.416753
452	H	0.340747	0.640594	0.415885
453	H	0.391804	0.680048	0.408161
454	H	0.445772	0.705862	0.406747
455	C	0.286707	0.745626	0.681034
456	C	0.281227	0.757838	0.387965
457	C	0.265331	0.774037	0.387589
458	C	0.252377	0.779074	0.681024
459	C	0.257518	0.766401	0.640856
460	C	0.274249	0.750815	0.640723
461	H	0.277456	0.743496	0.6098
462	H	0.248675	0.767877	0.610278
463	N	0.265766	0.783071	0.430486
464	O	0.289724	0.755343	0.431241
465	C	0.280399	0.772204	0.455336
466	H	0.28331	0.775332	0.489822
467	C	0.284946	0.545526	0.680949
468	C	0.270932	0.527799	0.387374
469	C	0.25513	0.995706	0.387162
470	C	0.250652	0.977758	0.680829
471	C	0.264161	0.995471	0.64088
472	C	0.280883	0.52779	0.641054
473	H	0.290571	0.538194	0.610845
474	H	0.26179	0.98502	0.61011
475	N	0.246561	0.986912	0.430138
476	O	0.270341	0.538593	0.429834
477	C	0.255962	0.512368	0.454625
478	H	0.251888	0.512115	0.488828
479	C	0.485095	0.745129	0.676357
480	C	0.502607	0.757582	0.383339
481	C	0.034617	0.773611	0.382998
482	C	0.052343	0.77873	0.676279
483	C	0.03488	0.766376	0.635828
484	C	0.502508	0.750209	0.635848
485	H	0.491664	0.741367	0.605495
486	H	0.045689	0.768349	0.605454
487	N	0.043508	0.782783	0.425762
488	O	0.491606	0.757012	0.42609
489	C	0.517974	0.772357	0.450529
490	H	0.51823	0.77652	0.484701
491	N	0.184892	0.844688	0.677437
492	C	0.20143	0.828361	0.678544
493	C	0.201201	0.877608	0.678342
494	C	0.152	0.82799	0.676737
495	C	0.134814	0.809339	0.713731
496	C	0.102599	0.793112	0.713218
497	C	0.085543	0.795141	0.676252
498	C	0.103017	0.814104	0.639336
499	C	0.135326	0.829998	0.639473
500	C	0.214396	0.82394	0.638619
501	C	0.23136	0.808671	0.639777
502	C	0.235324	0.795499	0.680378
503	C	0.221181	0.799375	0.71988
504	C	0.205451	0.815896	0.71932
505	C	0.223308	0.895237	0.645072
506	C	0.239586	0.927449	0.646623
507	C	0.234024	0.944351	0.680303
508	C	0.211035	0.926261	0.712716
509	C	0.195573	0.89398	0.712378
510	H	0.241136	0.807727	0.60982
511	H	0.211777	0.832153	0.608109
512	H	0.196662	0.818584	0.749198
513	H	0.221482	0.789683	0.750171
514	H	0.145671	0.807337	0.741706
515	H	0.091708	0.779183	0.740346
516	H	0.228236	0.884719	0.619512
517	H	0.256132	0.938382	0.622542
518	H	0.204472	0.936302	0.736869
519	H	0.179392	0.882295	0.736746
520	H	0.1468	0.843487	0.612184
521	H	0.092295	0.817084	0.611897
522	N	0.352559	0.678511	0.677512
523	C	0.33624	0.69511	0.678435
524	C	0.336004	0.645647	0.678554
525	C	0.385452	0.694708	0.676805
526	C	0.402124	0.713576	0.639691
527	C	0.434433	0.730001	0.639551
528	C	0.451907	0.72833	0.67631
529	C	0.434863	0.709029	0.713095
530	C	0.40265	0.693055	0.713632
531	C	0.314243	0.69073	0.645017
532	C	0.29794	0.706637	0.646565
533	C	0.303369	0.728929	0.680453
534	C	0.326262	0.733783	0.712996
535	C	0.341761	0.717	0.712614
536	C	0.323061	0.628291	0.638581
537	C	0.306054	0.596061	0.639691
538	C	0.302043	0.578951	0.680313
539	C	0.316197	0.596886	0.719856
540	C	0.331954	0.629137	0.719326
541	H	0.281492	0.701179	0.622347
542	H	0.309434	0.675396	0.619327
543	H	0.357876	0.721433	0.737063
544	H	0.332699	0.750334	0.737241
545	H	0.390647	0.715728	0.612526
546	H	0.445155	0.743854	0.612249
547	H	0.325712	0.639146	0.608085
548	H	0.296269	0.585288	0.609752
549	H	0.315888	0.586792	0.750089
550	H	0.340747	0.640594	0.749218
551	H	0.391804	0.680048	0.741494
552	H	0.445772	0.705862	0.74008
553	C	0.286707	0.745626	0.014365
554	C	0.281227	0.757838	0.721298
555	C	0.265331	0.774037	0.720925
556	C	0.252377	0.779074	0.014358
557	C	0.257518	0.766401	0.974189
558	C	0.274249	0.750815	0.974056
559	H	0.277456	0.743496	0.943136
560	H	0.248675	0.767877	0.943611
561	N	0.265766	0.783071	0.763819
562	O	0.289724	0.755343	0.764574
563	C	0.280399	0.772204	0.788672
564	H	0.28331	0.775332	0.823159
565	C	0.284946	0.545526	0.014282
566	C	0.270932	0.527799	0.720707
567	C	0.25513	0.995706	0.720495
568	C	0.250652	0.977758	0.014161
569	C	0.264161	0.995471	0.974216
570	C	0.280883	0.52779	0.974391
571	H	0.290571	0.538194	0.944178
572	H	0.26179	0.98502	0.943447
573	N	0.246561	0.986912	0.763471
574	O	0.270341	0.538593	0.763167
575	C	0.255962	0.512368	0.787958
576	H	0.251888	0.512115	0.822165
577	C	0.485095	0.745129	0.009694
578	C	0.502607	0.757582	0.716672
579	C	0.034617	0.773611	0.71633
580	C	0.052343	0.77873	0.009612
581	C	0.03488	0.766376	0.96916
582	C	0.502508	0.750209	0.969181
583	H	0.491664	0.741367	0.938828
584	H	0.045689	0.768349	0.938787
585	N	0.043508	0.782783	0.759095
586	O	0.491606	0.757012	0.759426
587	C	0.517974	0.772357	0.783862
588	H	0.51823	0.77652	0.818034
589	N	0.684892	0.344688	0.01077
590	C	0.701428	0.32836	0.011877
591	C	0.701202	0.377607	0.011679
592	C	0.652001	0.327989	0.01007
593	C	0.634813	0.309338	0.047062
594	C	0.6026	0.293111	0.046551
595	C	0.585543	0.29514	0.009584
596	C	0.603016	0.314103	0.972669
597	C	0.635326	0.33	0.972809
598	C	0.714397	0.323942	0.971951
599	C	0.731362	0.308672	0.97311
600	C	0.735323	0.295498	0.01371
601	C	0.721182	0.299374	0.053212
602	C	0.705451	0.315898	0.052653
603	C	0.723307	0.395236	0.978405
604	C	0.739587	0.427448	0.979956
605	C	0.734023	0.444352	0.013637
606	C	0.711033	0.42626	0.046049
607	C	0.695572	0.39398	0.04571
608	H	0.741138	0.307728	0.943156
609	H	0.711776	0.332154	0.941441
610	H	0.696662	0.318584	0.082529
611	H	0.721482	0.289682	0.083504
612	H	0.645671	0.307336	0.075039
613	H	0.591707	0.279185	0.073677
614	H	0.728238	0.38472	0.952848
615	H	0.756134	0.438383	0.955875
616	H	0.704469	0.436301	0.070201
617	H	0.679393	0.382294	0.070077
618	H	0.6468	0.343486	0.945517
619	H	0.592296	0.317086	0.94523
620	N	0.852559	0.178511	0.010845
621	C	0.836239	0.195108	0.011767
622	C	0.836004	0.145646	0.011887
623	C	0.885452	0.194708	0.010138
624	C	0.902124	0.213574	0.973024
625	C	0.934432	0.23	0.972884
626	C	0.951907	0.228329	0.009642
627	C	0.934863	0.20903	0.046428
628	C	0.902649	0.193055	0.046965
629	C	0.814243	0.190731	0.97835
630	C	0.797939	0.206637	0.979898
631	C	0.80337	0.228931	0.013784
632	C	0.826262	0.233783	0.046329
633	C	0.841761	0.217	0.045945
634	C	0.82306	0.128291	0.971914
635	C	0.806054	0.09606	0.973028
636	C	0.802042	0.07895	0.013646
637	C	0.816197	0.096886	0.053187
638	C	0.831955	0.129136	0.052658
639	H	0.781493	0.201179	0.955677
640	H	0.809433	0.175396	0.952657
641	H	0.857875	0.221431	0.070396
642	H	0.832699	0.250333	0.070575
643	H	0.890646	0.215727	0.945859
644	H	0.945154	0.243853	0.945582
645	H	0.825711	0.139146	0.941417
646	H	0.796268	0.085286	0.943085
647	H	0.815889	0.086792	0.08342
648	H	0.840748	0.140594	0.08255
649	H	0.891804	0.180048	0.074827
650	H	0.945772	0.205862	0.073412
651	C	0.786707	0.245625	0.347698
652	C	0.781228	0.257837	0.05463
653	C	0.765331	0.274036	0.054256
654	C	0.752377	0.279073	0.347691
655	C	0.757519	0.266401	0.307521
656	C	0.77425	0.250814	0.307388
657	H	0.777457	0.243498	0.276466
658	H	0.748677	0.267878	0.276943
659	N	0.765766	0.28307	0.097152
660	O	0.789723	0.255343	0.097907
661	C	0.780399	0.272203	0.122003
662	H	0.783308	0.275329	0.15649
663	C	0.784945	0.045527	0.347616
664	C	0.770932	0.027799	0.05404
665	C	0.755129	0.495705	0.053828
666	C	0.750651	0.477757	0.347496
667	C	0.764162	0.49547	0.307548
668	C	0.780881	0.027789	0.307721
669	H	0.790569	0.038194	0.277509
670	H	0.761791	0.485019	0.276779
671	N	0.746556	0.486911	0.096803
672	O	0.770343	0.038592	0.096502
673	C	0.755965	0.012366	0.121292
674	H	0.751893	0.012113	0.155497
675	C	0.985095	0.245128	0.343025
676	C	0.002607	0.257582	0.050004
677	C	0.534618	0.27361	0.049661
678	C	0.552343	0.278731	0.342943
679	C	0.534882	0.266378	0.302494
680	C	0.002507	0.250208	0.302514
681	H	0.991665	0.241366	0.27216
682	H	0.54569	0.268348	0.272118
683	N	0.543506	0.282783	0.092426
684	O	0.991606	0.257011	0.092756
685	C	0.017974	0.272358	0.117193
686	H	0.018231	0.276522	0.151367
687	N	0.684892	0.344688	0.344104
688	C	0.701428	0.32836	0.345211
689	C	0.701202	0.377607	0.345009
690	C	0.652001	0.327989	0.3434
691	C	0.634813	0.309338	0.380394
692	C	0.6026	0.293111	0.379885
693	C	0.585543	0.29514	0.342915
694	C	0.603016	0.314103	0.306001
695	C	0.635326	0.33	0.30614
696	C	0.714397	0.323942	0.305284
697	C	0.731362	0.308672	0.306441
698	C	0.735323	0.295498	0.347042
699	C	0.721182	0.299374	0.386547
700	C	0.705451	0.315898	0.385987
701	C	0.723307	0.395236	0.311739
702	C	0.739587	0.427448	0.31329
703	C	0.734023	0.444352	0.34697
704	C	0.711033	0.42626	0.379383
705	C	0.695572	0.39398	0.379045
706	H	0.741138	0.307728	0.276488
707	H	0.711776	0.332154	0.274774
708	H	0.696662	0.318584	0.415865
709	H	0.721482	0.289682	0.416839
710	H	0.645671	0.307336	0.408373
711	H	0.591707	0.279185	0.40701
712	H	0.728238	0.38472	0.286181
713	H	0.756134	0.438383	0.289208
714	H	0.704469	0.436301	0.403536
715	H	0.679393	0.382294	0.403409
716	H	0.6468	0.343486	0.278849
717	H	0.592296	0.317086	0.27856
718	N	0.852559	0.178511	0.344176
719	C	0.836239	0.195108	0.345102
720	C	0.836004	0.145646	0.345218
721	C	0.885452	0.194708	0.343472
722	C	0.902124	0.213574	0.306357
723	C	0.934432	0.23	0.306215
724	C	0.951907	0.228329	0.342973
725	C	0.934863	0.20903	0.379762
726	C	0.902649	0.193055	0.380299
727	C	0.814243	0.190731	0.311681
728	C	0.797939	0.206637	0.313229
729	C	0.80337	0.228931	0.347117
730	C	0.826262	0.233783	0.379663
731	C	0.841761	0.217	0.379277
732	C	0.82306	0.128291	0.305247
733	C	0.806054	0.09606	0.306359
734	C	0.802042	0.07895	0.346981
735	C	0.816197	0.096886	0.38652
736	C	0.831955	0.129136	0.38599
737	H	0.781493	0.201179	0.28901
738	H	0.809433	0.175396	0.28599
739	H	0.857875	0.221431	0.403731
740	H	0.832699	0.250333	0.403908
741	H	0.890646	0.215727	0.27919
742	H	0.945154	0.243853	0.278914
743	H	0.825711	0.139146	0.274749
744	H	0.796268	0.085286	0.276417
745	H	0.815889	0.086792	0.416753
746	H	0.840748	0.140594	0.415882
747	H	0.891804	0.180048	0.408161
748	H	0.945772	0.205862	0.406744
749	C	0.786707	0.245625	0.681034
750	C	0.781228	0.257837	0.387965
751	C	0.765331	0.274036	0.387589
752	C	0.752377	0.279073	0.681024
753	C	0.757519	0.266401	0.640853
754	C	0.77425	0.250814	0.640723
755	H	0.777457	0.243498	0.6098
756	H	0.748677	0.267878	0.610278
757	N	0.765766	0.28307	0.430486
758	O	0.789723	0.255343	0.431241
759	C	0.780399	0.272203	0.455336
760	H	0.783308	0.275329	0.489822
761	C	0.784945	0.045527	0.680949
762	C	0.770932	0.027799	0.387374
763	C	0.755129	0.495705	0.387162
764	C	0.750651	0.477757	0.680829
765	C	0.764162	0.49547	0.640884
766	C	0.780881	0.027789	0.641054
767	H	0.790569	0.038194	0.610841
768	H	0.761791	0.485019	0.610114
769	N	0.746556	0.486911	0.430138
770	O	0.770343	0.038592	0.429834
771	C	0.755965	0.012366	0.454625
772	H	0.751893	0.012113	0.488832
773	C	0.985095	0.245128	0.676357
774	C	0.002607	0.257582	0.383339
775	C	0.534618	0.27361	0.382994
776	C	0.552343	0.278731	0.676275
777	C	0.534882	0.266378	0.635828
778	C	0.002507	0.250208	0.635848
779	H	0.991665	0.241366	0.605495
780	H	0.54569	0.268348	0.605451
781	N	0.543506	0.282783	0.425762
782	O	0.991606	0.257011	0.42609
783	C	0.017974	0.272358	0.450526
784	H	0.018231	0.276522	0.484701
785	N	0.684892	0.344688	0.677437
786	C	0.701428	0.32836	0.678544
787	C	0.701202	0.377607	0.678342
788	C	0.652001	0.327989	0.676733
789	C	0.634813	0.309338	0.713731
790	C	0.6026	0.293111	0.713218
791	C	0.585543	0.29514	0.676248
792	C	0.603016	0.314103	0.639336
793	C	0.635326	0.33	0.639473
794	C	0.714397	0.323942	0.638619
795	C	0.731362	0.308672	0.639777
796	C	0.735323	0.295498	0.680378
797	C	0.721182	0.299374	0.71988
798	C	0.705451	0.315898	0.71932
799	C	0.723307	0.395236	0.645072
800	C	0.739587	0.427448	0.646623
801	C	0.734023	0.444352	0.680303
802	C	0.711033	0.42626	0.712716
803	C	0.695572	0.39398	0.712378
804	H	0.741138	0.307728	0.60982
805	H	0.711776	0.332154	0.608109
806	H	0.696662	0.318584	0.749198
807	H	0.721482	0.289682	0.750171
808	H	0.645671	0.307336	0.741706
809	H	0.591707	0.279185	0.740343
810	H	0.728238	0.38472	0.619515
811	H	0.756134	0.438383	0.622542
812	H	0.704469	0.436301	0.736869
813	H	0.679393	0.382294	0.736746
814	H	0.6468	0.343486	0.612184
815	H	0.592296	0.317086	0.611894
816	N	0.852559	0.178511	0.677512
817	C	0.836239	0.195108	0.678435
818	C	0.836004	0.145646	0.678554
819	C	0.885452	0.194708	0.676805
820	C	0.902124	0.213574	0.639691
821	C	0.934432	0.23	0.639548
822	C	0.951907	0.228329	0.67631
823	C	0.934863	0.20903	0.713095
824	C	0.902649	0.193055	0.713632
825	C	0.814243	0.190731	0.645014
826	C	0.797939	0.206637	0.646565
827	C	0.80337	0.228931	0.68045
828	C	0.826262	0.233783	0.712996
829	C	0.841761	0.217	0.712614
830	C	0.82306	0.128291	0.638581
831	C	0.806054	0.09606	0.639691
832	C	0.802042	0.07895	0.680313
833	C	0.816197	0.096886	0.719856
834	C	0.831955	0.129136	0.719326
835	H	0.781493	0.201179	0.622344
836	H	0.809433	0.175396	0.619324
837	H	0.857875	0.221431	0.737063
838	H	0.832699	0.250333	0.737241
839	H	0.890646	0.215727	0.612522
840	H	0.945154	0.243853	0.612249
841	H	0.825711	0.139146	0.608085
842	H	0.796268	0.085286	0.609752
843	H	0.815889	0.086792	0.750086
844	H	0.840748	0.140594	0.749218
845	H	0.891804	0.180048	0.741494
846	H	0.945772	0.205862	0.74008
847	C	0.786707	0.245625	0.014365
848	C	0.781228	0.257837	0.721298
849	C	0.765331	0.274036	0.720922
850	C	0.752377	0.279073	0.014358
851	C	0.757519	0.266401	0.974189
852	C	0.77425	0.250814	0.974056
853	H	0.777457	0.243498	0.943132
854	H	0.748677	0.267878	0.943611
855	N	0.765766	0.28307	0.763819
856	O	0.789723	0.255343	0.764574
857	C	0.780399	0.272203	0.788672
858	H	0.783308	0.275329	0.823159
859	C	0.784945	0.045527	0.014281
860	C	0.770932	0.027799	0.720707
861	C	0.755129	0.495705	0.720495
862	C	0.750651	0.477757	0.014161
863	C	0.764162	0.49547	0.974216
864	C	0.780881	0.027789	0.974387
865	H	0.790569	0.038194	0.944178
866	H	0.761791	0.485019	0.943447
867	N	0.746556	0.486911	0.763471
868	O	0.770343	0.038592	0.76317
869	C	0.755965	0.012366	0.787961
870	H	0.751893	0.012113	0.822165
871	C	0.985095	0.245128	0.00969
872	C	0.002607	0.257582	0.716672
873	C	0.534618	0.27361	0.71633
874	C	0.552343	0.278731	0.009612
875	C	0.534882	0.266378	0.96916
876	C	0.002507	0.250208	0.969181
877	H	0.991665	0.241366	0.938828
878	H	0.54569	0.268348	0.938787
879	N	0.543506	0.282783	0.759095
880	O	0.991606	0.257011	0.759423
881	C	0.017974	0.272358	0.783862
882	H	0.018231	0.276522	0.818034
883	N	0.684892	0.844688	0.01077
884	C	0.701428	0.828361	0.011877
885	C	0.701201	0.877608	0.011679
886	C	0.652	0.82799	0.01007
887	C	0.634812	0.809339	0.047062
888	C	0.602599	0.793112	0.046552
889	C	0.585543	0.795141	0.009584
890	C	0.603017	0.814104	0.972669
891	C	0.635324	0.829998	0.972809
892	C	0.714396	0.82394	0.971951
893	C	0.73136	0.808671	0.97311
894	C	0.735324	0.795499	0.01371
895	C	0.721181	0.799375	0.053213
896	C	0.705451	0.815896	0.052653
897	C	0.723306	0.895237	0.978405
898	C	0.739586	0.927449	0.979956
899	C	0.734024	0.944351	0.013637
900	C	0.711035	0.926261	0.046049
901	C	0.695573	0.89398	0.045711
902	H	0.741136	0.807727	0.943156
903	H	0.711777	0.832153	0.941441
904	H	0.696662	0.818584	0.08253
905	H	0.721481	0.789683	0.083504
906	H	0.645671	0.807337	0.07504
907	H	0.591708	0.779183	0.073677
908	H	0.728236	0.884719	0.952848
909	H	0.756132	0.938382	0.955875
910	H	0.70447	0.936302	0.070202
911	H	0.679392	0.882295	0.070078
912	H	0.6468	0.843487	0.945517
913	H	0.592295	0.817084	0.94523
914	N	0.85256	0.678511	0.010845
915	C	0.836239	0.69511	0.011771
916	C	0.836004	0.645647	0.011887
917	C	0.885451	0.694708	0.010138
918	C	0.902124	0.713576	0.973024
919	C	0.934434	0.730001	0.972884
920	C	0.951906	0.72833	0.009642
921	C	0.934863	0.709029	0.046429
922	C	0.902649	0.693055	0.046966
923	C	0.814242	0.69073	0.97835
924	C	0.79794	0.706637	0.979898
925	C	0.80337	0.728929	0.013785
926	C	0.826261	0.733783	0.046329
927	C	0.841762	0.717	0.045945
928	C	0.823061	0.628291	0.971914
929	C	0.806055	0.596061	0.973028
930	C	0.802042	0.578951	0.013647
931	C	0.816196	0.596886	0.053188
932	C	0.831955	0.629137	0.052659
933	H	0.781492	0.701179	0.95568
934	H	0.809432	0.675396	0.95266
935	H	0.857877	0.721433	0.070396
936	H	0.832698	0.750334	0.070574
937	H	0.890648	0.715728	0.945859
938	H	0.945154	0.743854	0.945582
939	H	0.825712	0.639146	0.941417
940	H	0.796269	0.585288	0.943085
941	H	0.815888	0.586792	0.083421
942	H	0.840748	0.640594	0.082551
943	H	0.891805	0.680048	0.074827
944	H	0.945773	0.705862	0.073412
945	C	0.786706	0.745626	0.347698
946	C	0.781228	0.757838	0.054631
947	C	0.76533	0.774037	0.054256
948	C	0.752376	0.779074	0.347691
949	C	0.757518	0.766401	0.307521
950	C	0.774249	0.750815	0.307389
951	H	0.777455	0.743496	0.276467
952	H	0.748675	0.767877	0.276943
953	N	0.765766	0.783071	0.097152
954	O	0.789723	0.755343	0.097907
955	C	0.780398	0.772204	0.122003
956	H	0.783311	0.775332	0.15649
957	C	0.784946	0.545526	0.347616
958	C	0.770931	0.527799	0.05404
959	C	0.75513	0.995706	0.053829
960	C	0.750652	0.977758	0.347496
961	C	0.764161	0.995471	0.307548
962	C	0.780882	0.52779	0.307722
963	H	0.79057	0.538194	0.27751
964	H	0.76179	0.98502	0.276778
965	N	0.746559	0.986912	0.096803
966	O	0.770341	0.538593	0.096501
967	C	0.755961	0.512368	0.121291
968	H	0.751889	0.512115	0.155495
969	C	0.985095	0.745129	0.343025
970	C	0.002606	0.757582	0.050005
971	C	0.534617	0.773611	0.049662
972	C	0.552342	0.77873	0.342943
973	C	0.53488	0.766376	0.302494
974	C	0.002507	0.750209	0.302515
975	H	0.991665	0.741367	0.272161
976	H	0.545689	0.768349	0.272119
977	N	0.543507	0.782783	0.092427
978	O	0.991607	0.757012	0.092757
979	C	0.017972	0.772357	0.117194
980	H	0.01823	0.77652	0.151368
981	N	0.684892	0.844688	0.344104
982	C	0.701428	0.828361	0.345211
983	C	0.701201	0.877608	0.345009
984	C	0.652	0.82799	0.3434
985	C	0.634812	0.809339	0.380398
986	C	0.602599	0.793112	0.379885
987	C	0.585543	0.795141	0.342915
988	C	0.603017	0.814104	0.306002
989	C	0.635324	0.829998	0.306141
990	C	0.714396	0.82394	0.305284
991	C	0.73136	0.808671	0.306442
992	C	0.735324	0.795499	0.347045
993	C	0.721181	0.799375	0.386547
994	C	0.705451	0.815896	0.385987
995	C	0.723306	0.895237	0.311738
996	C	0.739586	0.927449	0.313289
997	C	0.734024	0.944351	0.34697
998	C	0.711035	0.926261	0.379383
999	C	0.695573	0.89398	0.379045
1000	H	0.741136	0.807727	0.276488
1001	H	0.711777	0.832153	0.274775
1002	H	0.696662	0.818584	0.415865
1003	H	0.721481	0.789683	0.416839
1004	H	0.645671	0.807337	0.408373
1005	H	0.591708	0.779183	0.40701
1006	H	0.728236	0.884719	0.28618
1007	H	0.756132	0.938382	0.289207
1008	H	0.70447	0.936302	0.403536
1009	H	0.679392	0.882295	0.403413
1010	H	0.6468	0.843487	0.27885
1011	H	0.592295	0.817084	0.278562
1012	N	0.85256	0.678511	0.344179
1013	C	0.836239	0.69511	0.345102
1014	C	0.836004	0.645647	0.345221
1015	C	0.885451	0.694708	0.343472
1016	C	0.902124	0.713576	0.306358
1017	C	0.934434	0.730001	0.306216
1018	C	0.951906	0.72833	0.342977
1019	C	0.934863	0.709029	0.379762
1020	C	0.902649	0.693055	0.380299
1021	C	0.814242	0.69073	0.311683
1022	C	0.79794	0.706637	0.31323
1023	C	0.80337	0.728929	0.347117
1024	C	0.826261	0.733783	0.379663
1025	C	0.841762	0.717	0.379277
1026	C	0.823061	0.628291	0.305248
1027	C	0.806055	0.596061	0.306359
1028	C	0.802042	0.578951	0.346981
1029	C	0.816196	0.596886	0.386523
1030	C	0.831955	0.629137	0.385994
1031	H	0.781492	0.701179	0.289012
1032	H	0.809432	0.675396	0.285992
1033	H	0.857877	0.721433	0.403731
1034	H	0.832698	0.750334	0.403908
1035	H	0.890648	0.715728	0.279191
1036	H	0.945154	0.743854	0.278916
1037	H	0.825712	0.639146	0.274749
1038	H	0.796269	0.585288	0.276417
1039	H	0.815888	0.586792	0.416753
1040	H	0.840748	0.640594	0.415885
1041	H	0.891805	0.680048	0.408161
1042	H	0.945773	0.705862	0.406747
1043	C	0.786706	0.745626	0.681034
1044	C	0.781228	0.757838	0.387965
1045	C	0.76533	0.774037	0.387589
1046	C	0.752376	0.779074	0.681024
1047	C	0.757518	0.766401	0.640856
1048	C	0.774249	0.750815	0.640723
1049	H	0.777455	0.743496	0.6098
1050	H	0.748675	0.767877	0.610278
1051	N	0.765766	0.783071	0.430486
1052	O	0.789723	0.755343	0.431241
1053	C	0.780398	0.772204	0.455336
1054	H	0.783311	0.775332	0.489822
1055	C	0.784946	0.545526	0.680949
1056	C	0.770931	0.527799	0.387374
1057	C	0.75513	0.995706	0.387162
1058	C	0.750652	0.977758	0.680829
1059	C	0.764161	0.995471	0.64088
1060	C	0.780882	0.52779	0.641054
1061	H	0.79057	0.538194	0.610845
1062	H	0.76179	0.98502	0.61011
1063	N	0.746559	0.986912	0.430138
1064	O	0.770341	0.538593	0.429834
1065	C	0.755961	0.512368	0.454625
1066	H	0.751889	0.512115	0.488828
1067	C	0.985095	0.745129	0.676357
1068	C	0.002606	0.757582	0.383339
1069	C	0.534617	0.773611	0.382998
1070	C	0.552342	0.77873	0.676279
1071	C	0.53488	0.766376	0.635828
1072	C	0.002507	0.750209	0.635848
1073	H	0.991665	0.741367	0.605495
1074	H	0.545689	0.768349	0.605454
1075	N	0.543507	0.782783	0.425762
1076	O	0.991607	0.757012	0.42609
1077	C	0.017972	0.772357	0.450529
1078	H	0.01823	0.77652	0.484701
1079	N	0.684892	0.844688	0.677437
1080	C	0.701428	0.828361	0.678544
1081	C	0.701201	0.877608	0.678342
1082	C	0.652	0.82799	0.676737
1083	C	0.634812	0.809339	0.713731
1084	C	0.602599	0.793112	0.713218
1085	C	0.585543	0.795141	0.676252
1086	C	0.603017	0.814104	0.639336
1087	C	0.635324	0.829998	0.639473
1088	C	0.714396	0.82394	0.638619
1089	C	0.73136	0.808671	0.639777
1090	C	0.735324	0.795499	0.680378
1091	C	0.721181	0.799375	0.71988
1092	C	0.705451	0.815896	0.71932
1093	C	0.723306	0.895237	0.645072
1094	C	0.739586	0.927449	0.646623
1095	C	0.734024	0.944351	0.680303
1096	C	0.711035	0.926261	0.712716
1097	C	0.695573	0.89398	0.712378
1098	H	0.741136	0.807727	0.60982
1099	H	0.711777	0.832153	0.608109
1100	H	0.696662	0.818584	0.749198
1101	H	0.721481	0.789683	0.750171
1102	H	0.645671	0.807337	0.741706
1103	H	0.591708	0.779183	0.740346
1104	H	0.728236	0.884719	0.619512
1105	H	0.756132	0.938382	0.622542
1106	H	0.70447	0.936302	0.736869
1107	H	0.679392	0.882295	0.736746
1108	H	0.6468	0.843487	0.612184
1109	H	0.592295	0.817084	0.611897
1110	N	0.85256	0.678511	0.677512
1111	C	0.836239	0.69511	0.678435
1112	C	0.836004	0.645647	0.678554
1113	C	0.885451	0.694708	0.676805
1114	C	0.902124	0.713576	0.639691
1115	C	0.934434	0.730001	0.639551
1116	C	0.951906	0.72833	0.67631
1117	C	0.934863	0.709029	0.713095
1118	C	0.902649	0.693055	0.713632
1119	C	0.814242	0.69073	0.645017
1120	C	0.79794	0.706637	0.646565
1121	C	0.80337	0.728929	0.680453
1122	C	0.826261	0.733783	0.712996
1123	C	0.841762	0.717	0.712614
1124	C	0.823061	0.628291	0.638581
1125	C	0.806055	0.596061	0.639691
1126	C	0.802042	0.578951	0.680313
1127	C	0.816196	0.596886	0.719856
1128	C	0.831955	0.629137	0.719326
1129	H	0.781492	0.701179	0.622347
1130	H	0.809432	0.675396	0.619327
1131	H	0.857877	0.721433	0.737063
1132	H	0.832698	0.750334	0.737241
1133	H	0.890648	0.715728	0.612526
1134	H	0.945154	0.743854	0.612249
1135	H	0.825712	0.639146	0.608085
1136	H	0.796269	0.585288	0.609752
1137	H	0.815888	0.586792	0.750089
1138	H	0.840748	0.640594	0.749218
1139	H	0.891805	0.680048	0.741494
1140	H	0.945773	0.705862	0.74008
1141	C	0.786706	0.745626	0.014365
1142	C	0.781228	0.757838	0.721298
1143	C	0.76533	0.774037	0.720925
1144	C	0.752376	0.779074	0.014358
1145	C	0.757518	0.766401	0.974189
1146	C	0.774249	0.750815	0.974056
1147	H	0.777455	0.743496	0.943136
1148	H	0.748675	0.767877	0.943611
1149	N	0.765766	0.783071	0.763819
1150	O	0.789723	0.755343	0.764574
1151	C	0.780398	0.772204	0.788672
1152	H	0.783311	0.775332	0.823159
1153	C	0.784946	0.545526	0.014282
1154	C	0.770931	0.527799	0.720707
1155	C	0.75513	0.995706	0.720495
1156	C	0.750652	0.977758	0.014161
1157	C	0.764161	0.995471	0.974216
1158	C	0.780882	0.52779	0.974391
1159	H	0.79057	0.538194	0.944178
1160	H	0.76179	0.98502	0.943447
1161	N	0.746559	0.986912	0.763471
1162	O	0.770341	0.538593	0.763167
1163	C	0.755961	0.512368	0.787958
1164	H	0.751889	0.512115	0.822165
1165	C	0.985095	0.745129	0.009694
1166	C	0.002606	0.757582	0.716672
1167	C	0.534617	0.773611	0.71633
1168	C	0.552342	0.77873	0.009612
1169	C	0.53488	0.766376	0.96916
1170	C	0.002507	0.750209	0.969181
1171	H	0.991665	0.741367	0.938828
1172	H	0.545689	0.768349	0.938787
1173	N	0.543507	0.782783	0.759095
1174	O	0.991607	0.757012	0.759426
1175	C	0.017972	0.772357	0.783862
1176	H	0.01823	0.77652	0.818034
