data_C720H504N288_2018-02-15_10:35:58
#******************************************
#
# CIF file created by Zeo++
# Zeo++ is an open source package to
# analyze microporous materials
#
#*******************************************

_cell_length_a		46.4349   
_cell_length_b		46.435   
_cell_length_c		29.6586   
_cell_angle_alpha		90   
_cell_angle_beta		90   
_cell_angle_gamma		120   

_symmetry_space_group_name_H-M		'P1'
_symmetry_Int_Tables_number		1
_symmetry_cell_setting		Monoclinic

loop_
_symmetry_equiv_pos_as_xyz
'+x,+y,+z'

loop_
_atom_site_label
_atom_site_type_symbol
_atom_site_fract_x
_atom_site_fract_y
_atom_site_fract_z
1	C	0.0254	0.263384	0.335564
2	C	0.043371	0.245657	4e-05
3	C	0.077114	0.259555	0.012826
4	C	0.094243	0.293533	0.025608
5	C	0.081063	0.314414	0.347255
6	C	0.046279	0.298785	0.339662
7	N	0.121915	0.30578	0.052254
8	H	0.036925	0.314178	0.334211
9	H	0.032075	0.221618	0.989396
10	C	0.107711	0.229961	0.035622
11	C	0.096229	0.244107	0.002384
12	N	0.116808	0.258105	0.299715
13	N	0.09067	0.217443	0.074687
14	H	0.098492	0.207941	0.097558
15	H	0.069214	0.215823	0.079776
16	C	0.104139	0.3488	0.00654
17	C	0.104763	0.376634	0.027158
18	H	0.117079	0.429765	0.071657
19	H	0.084843	0.372812	0.046334
20	C	0.0254	0.263384	0.668899
21	C	0.043371	0.245657	0.333375
22	C	0.077114	0.259555	0.346159
23	C	0.094243	0.293533	0.358941
24	C	0.081063	0.314414	0.680588
25	C	0.046279	0.298785	0.672995
26	N	0.121915	0.30578	0.385588
27	H	0.036925	0.314178	0.667543
28	H	0.032075	0.221618	0.322727
29	C	0.107711	0.229961	0.368955
30	C	0.096229	0.244107	0.335718
31	N	0.116808	0.258105	0.633047
32	N	0.09067	0.217443	0.40802
33	H	0.098492	0.207941	0.43089
34	H	0.069214	0.215823	0.413111
35	C	0.104139	0.3488	0.339874
36	C	0.104763	0.376634	0.360492
37	H	0.117079	0.429765	0.404989
38	H	0.084843	0.372812	0.379667
39	C	0.0254	0.263384	0.002232
40	C	0.043371	0.245657	0.666707
41	C	0.077114	0.259555	0.679492
42	C	0.094243	0.293533	0.692275
43	C	0.081063	0.314414	0.013922
44	C	0.046279	0.298785	0.006328
45	N	0.121915	0.30578	0.718921
46	H	0.036925	0.314178	0.000876
47	H	0.032075	0.221618	0.656059
48	C	0.107711	0.229961	0.702289
49	C	0.096229	0.244107	0.66905
50	N	0.116808	0.258105	0.966384
51	N	0.09067	0.217443	0.741353
52	H	0.098492	0.207941	0.764223
53	H	0.069214	0.215823	0.746444
54	C	0.104139	0.3488	0.673208
55	C	0.104763	0.376634	0.693826
56	H	0.117079	0.429765	0.738325
57	H	0.084843	0.372812	0.713
58	C	0.0254	0.763384	0.335564
59	C	0.04337	0.745656	4e-05
60	C	0.077115	0.759554	0.012826
61	C	0.094245	0.793532	0.025608
62	C	0.081063	0.814413	0.347255
63	C	0.046279	0.798784	0.339662
64	N	0.121914	0.805779	0.052253
65	H	0.036924	0.814177	0.334211
66	H	0.032076	0.721617	0.989396
67	C	0.107711	0.72996	0.035622
68	C	0.096229	0.744107	0.002384
69	N	0.116808	0.758104	0.299715
70	N	0.090671	0.717442	0.074687
71	H	0.098493	0.70794	0.097558
72	H	0.069216	0.715823	0.079776
73	C	0.104139	0.848799	0.006539
74	C	0.104762	0.876633	0.027159
75	H	0.11708	0.929764	0.071657
76	H	0.084845	0.872813	0.046334
77	C	0.0254	0.763384	0.668899
78	C	0.04337	0.745656	0.333375
79	C	0.077115	0.759554	0.346159
80	C	0.094245	0.793532	0.358941
81	C	0.081063	0.814413	0.680588
82	C	0.046279	0.798784	0.672995
83	N	0.121914	0.805779	0.385588
84	H	0.036924	0.814177	0.667543
85	H	0.032076	0.721617	0.322727
86	C	0.107711	0.72996	0.368955
87	C	0.096229	0.744107	0.335718
88	N	0.116808	0.758104	0.633047
89	N	0.090671	0.717442	0.40802
90	H	0.098493	0.70794	0.43089
91	H	0.069216	0.715823	0.413111
92	C	0.104139	0.848799	0.339874
93	C	0.104762	0.876633	0.360492
94	H	0.11708	0.929764	0.404992
95	H	0.084845	0.872813	0.379667
96	C	0.0254	0.763384	0.002232
97	C	0.04337	0.745656	0.666707
98	C	0.077115	0.759554	0.679492
99	C	0.094245	0.793532	0.692275
100	C	0.081063	0.814413	0.013922
101	C	0.046279	0.798784	0.006328
102	N	0.121914	0.805779	0.718921
103	H	0.036924	0.814177	0.000876
104	H	0.032076	0.721617	0.656059
105	C	0.107711	0.72996	0.702289
106	C	0.096229	0.744107	0.66905
107	N	0.116808	0.758104	0.966384
108	N	0.090671	0.717442	0.741353
109	H	0.098493	0.70794	0.764223
110	H	0.069216	0.715823	0.746444
111	C	0.104139	0.848799	0.673208
112	C	0.104762	0.876633	0.693826
113	H	0.11708	0.929764	0.738325
114	H	0.084845	0.872813	0.713
115	H	0.127854	0.29085	0.066968
116	H	0.130806	0.327454	0.399705
117	C	0.194548	0.26557	0.328866
118	N	0.194921	0.317291	0.009151
119	H	0.199915	0.223645	0.330326
120	H	0.20598	0.340248	0.018451
121	H	0.171732	0.305596	0.349356
122	C	0.198375	0.4334	0.018179
123	N	0.204243	0.39082	0.056978
124	H	0.181994	0.381719	0.069311
125	H	0.200953	0.478375	0.00064
126	C	0.159136	0.247913	0.991544
127	C	0.138891	0.231434	0.029338
128	N	0.145569	0.259761	0.294571
129	H	0.148857	0.224894	0.055495
130	C	0.135256	0.407812	0.029721
131	C	0.164173	0.410784	0.008253
132	N	0.159699	0.38348	0.318684
133	N	0.132356	0.355067	0.318041
134	N	0.136705	0.432403	0.056087
135	H	0.157228	0.453359	0.060133
136	N	0.209708	0.135323	0.054918
137	H	0.192153	0.115615	0.06966
138	H	0.20975	0.156034	0.059489
139	H	0.127854	0.29085	0.400302
140	H	0.130806	0.327454	0.733038
141	C	0.194548	0.26557	0.662199
142	N	0.194921	0.317291	0.342484
143	H	0.199915	0.223645	0.663659
144	H	0.20598	0.340248	0.351783
145	H	0.171732	0.305596	0.682689
146	C	0.198375	0.4334	0.351513
147	N	0.204243	0.39082	0.390312
148	H	0.181994	0.381719	0.402645
149	H	0.200953	0.478375	0.333972
150	C	0.159136	0.247913	0.324876
151	C	0.138891	0.231434	0.36267
152	N	0.145569	0.259761	0.627905
153	H	0.148857	0.224894	0.388828
154	C	0.135256	0.407812	0.363055
155	C	0.164173	0.410784	0.341587
156	N	0.159699	0.38348	0.652016
157	N	0.132356	0.355067	0.651376
158	N	0.136705	0.432403	0.389422
159	H	0.157228	0.453359	0.393468
160	N	0.209708	0.135323	0.388252
161	H	0.192153	0.115615	0.402993
162	H	0.20975	0.156034	0.392824
163	H	0.127854	0.29085	0.733635
164	H	0.130806	0.327454	0.066372
165	C	0.194548	0.26557	0.995532
166	N	0.194921	0.317291	0.675817
167	H	0.199915	0.223645	0.996992
168	H	0.20598	0.340248	0.685116
169	H	0.171732	0.305596	0.016021
170	C	0.198375	0.4334	0.684847
171	N	0.204243	0.39082	0.723645
172	H	0.181994	0.381719	0.735979
173	H	0.200953	0.478375	0.667307
174	C	0.159136	0.247913	0.65821
175	C	0.138891	0.231434	0.696004
176	N	0.145569	0.259761	0.961239
177	H	0.148857	0.224894	0.722161
178	C	0.135256	0.407812	0.696388
179	C	0.164173	0.410784	0.67492
180	N	0.159699	0.38348	0.98535
181	N	0.132356	0.355067	0.984709
182	N	0.136705	0.432403	0.722755
183	H	0.157228	0.453359	0.726801
184	N	0.209708	0.135323	0.721585
185	H	0.192153	0.115615	0.736326
186	H	0.20975	0.156034	0.726157
187	H	0.127855	0.790849	0.066968
188	H	0.130807	0.827453	0.399705
189	C	0.194548	0.765569	0.328865
190	N	0.194921	0.81729	0.009151
191	H	0.199914	0.723644	0.330326
192	H	0.20598	0.840248	0.01845
193	H	0.171733	0.805595	0.349356
194	C	0.198375	0.9334	0.018179
195	N	0.204243	0.89082	0.056978
196	H	0.181994	0.881718	0.069311
197	H	0.200954	0.978377	0.00064
198	C	0.159137	0.747914	0.991544
199	C	0.138891	0.731434	0.029338
200	N	0.14557	0.75976	0.294571
201	H	0.148857	0.724894	0.055495
202	C	0.135256	0.907811	0.029721
203	C	0.164172	0.910783	0.008253
204	N	0.159698	0.883479	0.318684
205	N	0.132356	0.855068	0.318041
206	N	0.136704	0.932402	0.056087
207	H	0.157228	0.953358	0.060133
208	N	0.209708	0.635323	0.054918
209	H	0.192152	0.615614	0.06966
210	H	0.20975	0.656035	0.059489
211	H	0.127855	0.790849	0.400302
212	H	0.130807	0.827453	0.733038
213	C	0.194548	0.765569	0.662199
214	N	0.194921	0.81729	0.342484
215	H	0.199914	0.723644	0.663659
216	H	0.20598	0.840248	0.351783
217	H	0.171733	0.805595	0.682689
218	C	0.198375	0.9334	0.351513
219	N	0.204243	0.89082	0.390312
220	H	0.181994	0.881718	0.402645
221	H	0.200954	0.978377	0.333972
222	C	0.159137	0.747914	0.324876
223	C	0.138891	0.731434	0.36267
224	N	0.14557	0.75976	0.627905
225	H	0.148857	0.724894	0.388828
226	C	0.135256	0.907811	0.363055
227	C	0.164172	0.910783	0.341587
228	N	0.159698	0.883479	0.652016
229	N	0.132356	0.855068	0.651376
230	N	0.136704	0.932402	0.389422
231	H	0.157228	0.953358	0.393468
232	N	0.209708	0.635323	0.388252
233	H	0.192152	0.615614	0.402993
234	H	0.20975	0.656035	0.392824
235	H	0.127855	0.790849	0.733635
236	H	0.130807	0.827453	0.066372
237	C	0.194548	0.765569	0.995532
238	N	0.194921	0.81729	0.675817
239	H	0.199914	0.723644	0.996992
240	H	0.20598	0.840248	0.685116
241	H	0.171733	0.805595	0.016021
242	C	0.198375	0.9334	0.684847
243	N	0.204243	0.89082	0.723645
244	H	0.181994	0.881718	0.735979
245	H	0.200954	0.978377	0.667307
246	C	0.159137	0.747914	0.65821
247	C	0.138891	0.731434	0.696004
248	N	0.14557	0.75976	0.961239
249	H	0.148857	0.724894	0.722161
250	C	0.135256	0.907811	0.696388
251	C	0.164172	0.910783	0.67492
252	N	0.159698	0.883479	0.98535
253	N	0.132356	0.855068	0.984709
254	N	0.136704	0.932402	0.722755
255	H	0.157228	0.953358	0.726801
256	N	0.209708	0.635323	0.721585
257	H	0.192152	0.615614	0.736326
258	H	0.20975	0.656035	0.726157
259	C	0.267864	0.248725	0.337632
260	C	0.271663	0.197386	0.018011
261	C	0.253066	0.213311	0.007982
262	C	0.248847	0.265677	0.333554
263	C	0.264631	0.301172	0.000667
264	C	0.247491	0.319183	0.999652
265	C	0.212001	0.301023	0.999595
266	C	0.213249	0.248949	0.331451
267	H	0.228558	0.19826	0.00061
268	C	0.268803	0.02391	0.338411
269	C	0.253475	0.044049	0.342943
270	C	0.272365	0.079064	0.349366
271	H	0.228398	0.033753	0.339348
272	C	0.250741	0.487931	0.339736
273	C	0.215204	0.468095	0.008745
274	C	0.218171	0.419328	0.031867
275	C	0.252514	0.435802	0.354538
276	C	0.267653	0.469251	0.340606
277	H	0.217882	0.383251	0.405053
278	C	0.267716	0.416545	0.011491
279	C	0.265125	0.354622	0.000708
280	N	0.255546	0.369196	0.302053
281	N	0.256453	0.397562	0.307087
282	C	0.261331	0.102367	0.008622
283	C	0.233771	0.103165	0.02769
284	C	0.233442	0.133883	0.029918
285	C	0.26042	0.162979	0.010132
286	H	0.216859	0.083096	0.045944
287	C	0.267864	0.248725	0.670965
288	C	0.271663	0.197386	0.351345
289	C	0.253066	0.213311	0.341314
290	C	0.248847	0.265677	0.666886
291	C	0.264631	0.301172	0.334002
292	C	0.247491	0.319183	0.332987
293	C	0.212001	0.301023	0.332927
294	C	0.213249	0.248949	0.664785
295	H	0.228558	0.19826	0.333944
296	C	0.268803	0.02391	0.671744
297	C	0.253475	0.044049	0.676276
298	C	0.272365	0.079064	0.682699
299	H	0.228398	0.033753	0.672682
300	C	0.250741	0.487931	0.673069
301	C	0.215204	0.468095	0.342079
302	C	0.218171	0.419328	0.365199
303	C	0.252514	0.435802	0.687871
304	C	0.267653	0.469251	0.673943
305	H	0.217882	0.383251	0.738386
306	C	0.267716	0.416545	0.344824
307	C	0.265125	0.354622	0.334041
308	N	0.255546	0.369196	0.635387
309	N	0.256453	0.397562	0.640421
310	C	0.261331	0.102367	0.341955
311	C	0.233771	0.103165	0.361022
312	C	0.233442	0.133883	0.36325
313	C	0.26042	0.162979	0.343465
314	H	0.216859	0.083096	0.379276
315	C	0.267864	0.248725	0.004299
316	C	0.271663	0.197386	0.684678
317	C	0.253066	0.213311	0.674647
318	C	0.248847	0.265677	0.000219
319	C	0.264631	0.301172	0.667334
320	C	0.247491	0.319183	0.666319
321	C	0.212001	0.301023	0.666262
322	C	0.213249	0.248949	0.998118
323	H	0.228558	0.19826	0.667277
324	C	0.268803	0.02391	0.005078
325	C	0.253475	0.044049	0.00961
326	C	0.272365	0.079064	0.016031
327	H	0.228398	0.033753	0.006015
328	C	0.250741	0.487931	0.006401
329	C	0.215204	0.468095	0.675413
330	C	0.218171	0.419328	0.698532
331	C	0.252514	0.435802	0.021206
332	C	0.267653	0.469251	0.007274
333	H	0.217882	0.383251	0.07172
334	C	0.267716	0.416545	0.678157
335	C	0.265125	0.354622	0.667375
336	N	0.255546	0.369196	0.96872
337	N	0.256453	0.397562	0.973754
338	C	0.261331	0.102367	0.675288
339	C	0.233771	0.103165	0.694358
340	C	0.233442	0.133883	0.696587
341	C	0.26042	0.162979	0.676798
342	H	0.216859	0.083096	0.712609
343	C	0.267864	0.748724	0.337632
344	C	0.271663	0.697386	0.018011
345	C	0.253066	0.713311	0.007982
346	C	0.248847	0.765676	0.333554
347	C	0.264631	0.801172	0.000667
348	C	0.247491	0.819183	0.999652
349	C	0.212002	0.801025	0.999595
350	C	0.21325	0.748951	0.331451
351	H	0.228559	0.698259	0.00061
352	C	0.268804	0.523909	0.338411
353	C	0.253477	0.544049	0.342943
354	C	0.272365	0.579064	0.349366
355	H	0.228398	0.533751	0.339348
356	C	0.250742	0.987931	0.339736
357	C	0.215205	0.968094	0.008745
358	C	0.218172	0.919327	0.031867
359	C	0.252514	0.935802	0.354538
360	C	0.267654	0.96925	0.340606
361	H	0.217883	0.88325	0.405053
362	C	0.267716	0.916545	0.011491
363	C	0.265125	0.854621	0.000708
364	N	0.255546	0.869195	0.302053
365	N	0.256453	0.897561	0.307087
366	C	0.261331	0.602367	0.008622
367	C	0.233772	0.603165	0.02769
368	C	0.233443	0.633883	0.029918
369	C	0.26042	0.662978	0.010132
370	H	0.216859	0.583095	0.045944
371	C	0.267864	0.748724	0.670965
372	C	0.271663	0.697386	0.351345
373	C	0.253066	0.713311	0.341314
374	C	0.248847	0.765676	0.666886
375	C	0.264631	0.801172	0.334002
376	C	0.247491	0.819183	0.332987
377	C	0.212002	0.801025	0.332927
378	C	0.21325	0.748951	0.664785
379	H	0.228559	0.698259	0.333944
380	C	0.268804	0.523909	0.671744
381	C	0.253477	0.544049	0.676276
382	C	0.272365	0.579064	0.682699
383	H	0.228398	0.533751	0.672682
384	C	0.250742	0.987931	0.673069
385	C	0.215205	0.968094	0.342079
386	C	0.218172	0.919327	0.365199
387	C	0.252514	0.935802	0.687871
388	C	0.267654	0.96925	0.673943
389	H	0.217883	0.88325	0.738386
390	C	0.267716	0.916545	0.344824
391	C	0.265125	0.854621	0.334041
392	N	0.255546	0.869195	0.635387
393	N	0.256453	0.897561	0.640421
394	C	0.261331	0.602367	0.341955
395	C	0.233772	0.603165	0.361025
396	C	0.233443	0.633883	0.36325
397	C	0.26042	0.662978	0.343465
398	H	0.216859	0.583095	0.379276
399	C	0.267864	0.748724	0.004299
400	C	0.271663	0.697386	0.684678
401	C	0.253066	0.713311	0.674647
402	C	0.248847	0.765676	0.000219
403	C	0.264631	0.801172	0.667334
404	C	0.247491	0.819183	0.666319
405	C	0.212002	0.801025	0.666262
406	C	0.21325	0.748951	0.998118
407	H	0.228559	0.698259	0.667277
408	C	0.268804	0.523909	0.005078
409	C	0.253477	0.544049	0.00961
410	C	0.272365	0.579064	0.016031
411	H	0.228398	0.533751	0.006015
412	C	0.250742	0.987931	0.006401
413	C	0.215205	0.968094	0.675413
414	C	0.218172	0.919327	0.698532
415	C	0.252514	0.935802	0.021206
416	C	0.267654	0.96925	0.007274
417	H	0.217883	0.88325	0.071719
418	C	0.267716	0.916545	0.678157
419	C	0.265125	0.854621	0.667375
420	N	0.255546	0.869195	0.96872
421	N	0.256453	0.897561	0.973754
422	C	0.261331	0.602367	0.675288
423	C	0.233772	0.603165	0.694358
424	C	0.233443	0.633883	0.696587
425	C	0.26042	0.662978	0.676798
426	H	0.216859	0.583095	0.712609
427	C	0.489395	0.246822	0.332197
428	C	0.469185	0.211343	0.331066
429	C	0.434047	0.194014	0.328975
430	C	0.417377	0.212636	0.000212
431	C	0.435676	0.248123	0.998017
432	C	0.471001	0.264093	0.998284
433	H	0.479764	0.196743	0.33108
434	N	0.384586	0.19659	0.012832
435	H	0.374114	0.208659	0.023361
436	H	0.373328	0.173712	0.355489
437	H	0.483263	0.2894	0.997734
438	C	0.303543	0.266145	0.336586
439	C	0.322948	0.252169	0.351011
440	C	0.305645	0.218189	0.030609
441	H	0.316577	0.290042	0.325371
442	N	0.320773	0.205572	0.057171
443	H	0.308068	0.183646	0.070658
444	H	0.341612	0.220299	0.405461
445	H	0.289802	0.315344	0.002913
446	C	0.306514	0.092539	0.0275
447	C	0.323656	0.076013	0.013672
448	C	0.304299	0.042404	0.000809
449	N	0.322223	0.120267	0.053983
450	H	0.292374	0.480066	0.333884
451	H	0.343578	0.126647	0.067654
452	H	0.309851	0.129544	0.401684
453	H	0.317282	0.031625	0.989173
454	C	0.279625	0.404179	0.045963
455	C	0.278158	0.372951	0.04152
456	N	0.286065	0.36048	0.077953
457	H	0.294346	0.373267	0.105673
458	H	0.284962	0.339082	0.07711
459	H	0.285279	0.415857	0.076654
460	C	0.357465	0.267326	0.007412
461	C	0.382414	0.280898	0.041045
462	C	0.412675	0.280212	0.036872
463	C	0.418061	0.266092	0.997211
464	N	0.393018	0.254527	0.299467
465	N	0.365147	0.25481	0.304195
466	N	0.433824	0.290094	0.072626
467	H	0.42954	0.299238	0.099671
468	H	0.454623	0.289935	0.07158
469	H	0.376743	0.287602	0.071211
470	N	0.283337	0.158242	0.321365
471	N	0.283848	0.130649	0.320743
472	C	0.415341	0.158772	0.991196
473	C	0.413624	0.137357	0.026351
474	C	0.384297	0.105919	0.032548
475	C	0.357624	0.095611	0.001193
476	N	0.362531	0.117209	0.300486
477	N	0.389086	0.14626	0.295712
478	N	0.381253	0.0876	0.069835
479	H	0.399391	0.094755	0.09135
480	H	0.361657	0.065937	0.074755
481	H	0.431175	0.146556	0.051352
482	C	0.489395	0.246822	0.66553
483	C	0.469185	0.211343	0.664401
484	C	0.434047	0.194014	0.662307
485	C	0.417377	0.212636	0.333546
486	C	0.435676	0.248123	0.33135
487	C	0.471001	0.264093	0.331616
488	H	0.479764	0.196743	0.664414
489	N	0.384586	0.19659	0.346166
490	H	0.374114	0.208659	0.356696
491	H	0.373328	0.173712	0.688822
492	H	0.483263	0.2894	0.331066
493	C	0.303543	0.266145	0.66992
494	C	0.322948	0.252169	0.684344
495	C	0.305645	0.218189	0.363942
496	H	0.316577	0.290042	0.658706
497	N	0.320773	0.205572	0.390504
498	H	0.308068	0.183646	0.403991
499	H	0.341612	0.220299	0.738794
500	H	0.289802	0.315344	0.336244
501	C	0.306514	0.092539	0.360833
502	C	0.323656	0.076013	0.347005
503	C	0.304299	0.042404	0.334141
504	N	0.322223	0.120267	0.387318
505	H	0.292374	0.480066	0.667216
506	H	0.343578	0.126647	0.400986
507	H	0.309851	0.129544	0.735018
508	H	0.317282	0.031625	0.322507
509	C	0.279625	0.404179	0.379296
510	C	0.278158	0.372951	0.374852
511	N	0.286065	0.36048	0.411287
512	H	0.294346	0.373267	0.439006
513	H	0.284962	0.339082	0.410444
514	H	0.285279	0.415857	0.409989
515	C	0.357465	0.267326	0.340744
516	C	0.382414	0.280898	0.37438
517	C	0.412675	0.280212	0.370206
518	C	0.418061	0.266092	0.330543
519	N	0.393018	0.254527	0.632801
520	N	0.365147	0.25481	0.637528
521	N	0.433824	0.290094	0.40596
522	H	0.42954	0.299238	0.433004
523	H	0.454623	0.289935	0.404914
524	H	0.376743	0.287602	0.404544
525	N	0.283337	0.158242	0.6547
526	N	0.283848	0.130649	0.654077
527	C	0.415341	0.158772	0.324528
528	C	0.413624	0.137357	0.359683
529	C	0.384297	0.105919	0.36588
530	C	0.357624	0.095611	0.334526
531	N	0.362531	0.117209	0.633819
532	N	0.389086	0.14626	0.629045
533	N	0.381253	0.0876	0.403168
534	H	0.399391	0.094755	0.424683
535	H	0.361657	0.065937	0.408087
536	H	0.431175	0.146556	0.384684
537	C	0.489395	0.246822	0.998863
538	C	0.469185	0.211343	0.997734
539	C	0.434047	0.194014	0.99564
540	C	0.417377	0.212636	0.666879
541	C	0.435676	0.248123	0.664684
542	C	0.471001	0.264093	0.66495
543	H	0.479764	0.196743	0.997747
544	N	0.384586	0.19659	0.679499
545	H	0.374114	0.208659	0.690029
546	H	0.373328	0.173712	0.022155
547	H	0.483263	0.2894	0.664401
548	C	0.303543	0.266145	0.003253
549	C	0.322948	0.252169	0.017679
550	C	0.305645	0.218189	0.697275
551	H	0.316577	0.290042	0.992039
552	N	0.320773	0.205572	0.723837
553	H	0.308068	0.183646	0.737324
554	H	0.341612	0.220299	0.072128
555	H	0.289802	0.315344	0.669576
556	C	0.306514	0.092539	0.694166
557	C	0.323656	0.076013	0.680339
558	C	0.304299	0.042404	0.667476
559	N	0.322223	0.120267	0.720651
560	H	0.292374	0.480066	0.000553
561	H	0.343578	0.126647	0.73432
562	H	0.309851	0.129544	0.06835
563	H	0.317282	0.031625	0.65584
564	C	0.279625	0.404179	0.71263
565	C	0.278158	0.372951	0.708186
566	N	0.286065	0.36048	0.74462
567	H	0.294346	0.373267	0.772339
568	H	0.284962	0.339082	0.743777
569	H	0.285279	0.415857	0.743322
570	C	0.357465	0.267326	0.674077
571	C	0.382414	0.280898	0.707714
572	C	0.412675	0.280212	0.703539
573	C	0.418061	0.266092	0.663878
574	N	0.393018	0.254527	0.966134
575	N	0.365147	0.25481	0.970861
576	N	0.433824	0.290094	0.739293
577	H	0.42954	0.299238	0.766337
578	H	0.454623	0.289935	0.738248
579	H	0.376743	0.287602	0.737877
580	N	0.283337	0.158242	0.988034
581	N	0.283848	0.130649	0.98741
582	C	0.415341	0.158772	0.657863
583	C	0.413624	0.137357	0.693016
584	C	0.384297	0.105919	0.699214
585	C	0.357624	0.095611	0.66786
586	N	0.362531	0.117209	0.967153
587	N	0.389086	0.14626	0.962378
588	N	0.381253	0.0876	0.736501
589	H	0.399391	0.094755	0.758016
590	H	0.361657	0.065937	0.741421
591	H	0.431175	0.146556	0.718018
592	C	0.489395	0.746822	0.332197
593	C	0.469184	0.711342	0.331066
594	C	0.434047	0.694014	0.328975
595	C	0.417376	0.712635	0.000212
596	C	0.435677	0.748123	0.998017
597	C	0.471002	0.764095	0.998284
598	H	0.479763	0.696742	0.33108
599	N	0.384587	0.696588	0.012832
600	H	0.374114	0.708659	0.023361
601	H	0.373329	0.67371	0.355489
602	H	0.483263	0.789399	0.997734
603	C	0.303544	0.766146	0.336586
604	C	0.322949	0.752169	0.351011
605	C	0.305645	0.718188	0.030609
606	H	0.316577	0.790041	0.325371
607	N	0.320773	0.705573	0.057171
608	H	0.308067	0.683645	0.070658
609	H	0.341612	0.720299	0.405461
610	H	0.289802	0.815343	0.002913
611	C	0.306513	0.592539	0.0275
612	C	0.323656	0.576013	0.013672
613	C	0.304299	0.542403	0.000809
614	N	0.322222	0.620266	0.053983
615	H	0.292374	0.980065	0.333884
616	H	0.343578	0.626647	0.067654
617	H	0.30985	0.629544	0.401684
618	H	0.317283	0.531625	0.989173
619	C	0.279625	0.904178	0.045963
620	C	0.278158	0.87295	0.04152
621	N	0.286067	0.860482	0.077953
622	H	0.294346	0.873266	0.105673
623	H	0.284962	0.839081	0.07711
624	H	0.285279	0.915856	0.076654
625	C	0.357465	0.767325	0.007412
626	C	0.382414	0.780897	0.041045
627	C	0.412675	0.780211	0.036872
628	C	0.418061	0.766092	0.997211
629	N	0.393018	0.754526	0.299467
630	N	0.365147	0.754809	0.304195
631	N	0.433824	0.790093	0.072626
632	H	0.429539	0.799237	0.099671
633	H	0.454622	0.789934	0.07158
634	H	0.376743	0.787602	0.071211
635	N	0.283337	0.658241	0.321365
636	N	0.283848	0.630648	0.320743
637	C	0.415342	0.658773	0.991196
638	C	0.413624	0.637357	0.026351
639	C	0.384297	0.605918	0.032548
640	C	0.357624	0.595611	0.001193
641	N	0.36253	0.617208	0.300486
642	N	0.389088	0.64626	0.295712
643	N	0.381254	0.587601	0.069835
644	H	0.399391	0.594755	0.09135
645	H	0.361657	0.565937	0.074755
646	H	0.431175	0.646556	0.051352
647	C	0.489395	0.746822	0.66553
648	C	0.469184	0.711342	0.664401
649	C	0.434047	0.694014	0.662307
650	C	0.417376	0.712635	0.333546
651	C	0.435677	0.748123	0.33135
652	C	0.471002	0.764095	0.331616
653	H	0.479763	0.696742	0.664414
654	N	0.384587	0.696588	0.346166
655	H	0.374114	0.708659	0.356696
656	H	0.373329	0.67371	0.688822
657	H	0.483263	0.789399	0.331066
658	C	0.303544	0.766146	0.66992
659	C	0.322949	0.752169	0.684344
660	C	0.305645	0.718188	0.363942
661	H	0.316577	0.790041	0.658706
662	N	0.320773	0.705573	0.390504
663	H	0.308067	0.683645	0.403991
664	H	0.341612	0.720299	0.738794
665	H	0.289802	0.815343	0.336244
666	C	0.306513	0.592539	0.360833
667	C	0.323656	0.576013	0.347005
668	C	0.304299	0.542403	0.334141
669	N	0.322222	0.620266	0.387318
670	H	0.292374	0.980065	0.667216
671	H	0.343578	0.626647	0.400986
672	H	0.30985	0.629544	0.735018
673	H	0.317283	0.531625	0.322507
674	C	0.279625	0.904178	0.379296
675	C	0.278158	0.87295	0.374852
676	N	0.286067	0.860482	0.411287
677	H	0.294346	0.873266	0.439006
678	H	0.284962	0.839081	0.410444
679	H	0.285279	0.915856	0.409989
680	C	0.357465	0.767325	0.340744
681	C	0.382414	0.780897	0.37438
682	C	0.412675	0.780211	0.370206
683	C	0.418061	0.766092	0.330543
684	N	0.393018	0.754526	0.632801
685	N	0.365147	0.754809	0.637528
686	N	0.433824	0.790093	0.40596
687	H	0.429539	0.799237	0.433004
688	H	0.454622	0.789934	0.404914
689	H	0.376743	0.787602	0.404544
690	N	0.283337	0.658241	0.6547
691	N	0.283848	0.630648	0.654077
692	C	0.415342	0.658773	0.324528
693	C	0.413624	0.637357	0.359683
694	C	0.384297	0.605918	0.36588
695	C	0.357624	0.595611	0.334526
696	N	0.36253	0.617208	0.633819
697	N	0.389088	0.64626	0.629045
698	N	0.381254	0.587601	0.403168
699	H	0.399391	0.594755	0.424683
700	H	0.361657	0.565937	0.408087
701	H	0.431175	0.646556	0.384684
702	C	0.489395	0.746822	0.998863
703	C	0.469184	0.711342	0.997734
704	C	0.434047	0.694014	0.99564
705	C	0.417376	0.712635	0.666879
706	C	0.435677	0.748123	0.664684
707	C	0.471002	0.764095	0.66495
708	H	0.479763	0.696742	0.997747
709	N	0.384587	0.696588	0.679499
710	H	0.374114	0.708659	0.690029
711	H	0.373329	0.67371	0.022155
712	H	0.483263	0.789399	0.664401
713	C	0.303544	0.766146	0.003253
714	C	0.322949	0.752169	0.017679
715	C	0.305645	0.718188	0.697275
716	H	0.316577	0.790041	0.992039
717	N	0.320773	0.705573	0.723837
718	H	0.308067	0.683645	0.737324
719	H	0.341612	0.720299	0.072128
720	H	0.289802	0.815343	0.669576
721	C	0.306513	0.592539	0.694166
722	C	0.323656	0.576013	0.680339
723	C	0.304299	0.542403	0.667476
724	N	0.322222	0.620266	0.720651
725	H	0.292374	0.980065	0.000553
726	H	0.343578	0.626647	0.73432
727	H	0.30985	0.629544	0.06835
728	H	0.317283	0.531625	0.65584
729	C	0.279625	0.904178	0.71263
730	C	0.278158	0.87295	0.708186
731	N	0.286067	0.860482	0.74462
732	H	0.294346	0.873266	0.772339
733	H	0.284962	0.839081	0.743777
734	H	0.285279	0.915856	0.743322
735	C	0.357465	0.767325	0.674077
736	C	0.382414	0.780897	0.707714
737	C	0.412675	0.780211	0.703539
738	C	0.418061	0.766092	0.663878
739	N	0.393018	0.754526	0.966134
740	N	0.365147	0.754809	0.970861
741	N	0.433824	0.790093	0.739293
742	H	0.429539	0.799237	0.766337
743	H	0.454622	0.789934	0.738248
744	H	0.376743	0.787602	0.737877
745	N	0.283337	0.658241	0.988034
746	N	0.283848	0.630648	0.98741
747	C	0.415342	0.658773	0.657863
748	C	0.413624	0.637357	0.693016
749	C	0.384297	0.605918	0.699214
750	C	0.357624	0.595611	0.66786
751	N	0.36253	0.617208	0.967153
752	N	0.389088	0.64626	0.962378
753	N	0.381254	0.587601	0.736501
754	H	0.399391	0.594755	0.758016
755	H	0.361657	0.565937	0.741421
756	H	0.431175	0.646556	0.718018
757	C	0.989396	0.246822	0.332197
758	C	0.969184	0.211343	0.331066
759	C	0.934046	0.194014	0.328975
760	C	0.917376	0.212636	0.000212
761	C	0.935677	0.248123	0.998017
762	C	0.971002	0.264093	0.998284
763	H	0.979763	0.196743	0.33108
764	N	0.884587	0.19659	0.012832
765	C	0.525401	0.263384	0.335564
766	C	0.54337	0.245657	4e-05
767	C	0.577114	0.259555	0.012826
768	C	0.594243	0.293533	0.025608
769	C	0.581063	0.314414	0.347255
770	C	0.54628	0.298785	0.339662
771	N	0.621915	0.30578	0.052254
772	H	0.536924	0.314178	0.334211
773	H	0.627856	0.29085	0.066968
774	H	0.630805	0.327454	0.399705
775	H	0.874115	0.208659	0.023361
776	H	0.873329	0.173712	0.355489
777	H	0.983264	0.2894	0.997734
778	H	0.532074	0.221618	0.989396
779	C	0.767864	0.248725	0.337632
780	C	0.803542	0.266145	0.336586
781	C	0.822949	0.252169	0.351011
782	C	0.805646	0.218189	0.030609
783	C	0.771663	0.197386	0.018011
784	C	0.753066	0.213311	0.007982
785	H	0.816576	0.290042	0.325371
786	N	0.820772	0.205572	0.057171
787	C	0.748847	0.265677	0.333554
788	C	0.764631	0.301172	0.000667
789	C	0.74749	0.319183	0.999652
790	C	0.712001	0.301023	0.999595
791	C	0.694548	0.26557	0.328866
792	C	0.71325	0.248949	0.331451
793	N	0.694921	0.317291	0.009151
794	H	0.699915	0.223645	0.330326
795	H	0.70598	0.340248	0.018451
796	H	0.671734	0.305596	0.349356
797	H	0.808067	0.183646	0.070658
798	H	0.84161	0.220299	0.405461
799	H	0.72856	0.19826	0.00061
800	H	0.789802	0.315344	0.002913
801	C	0.768804	0.02391	0.338411
802	C	0.753477	0.044049	0.342943
803	C	0.772364	0.079064	0.349366
804	C	0.806512	0.092539	0.0275
805	C	0.823657	0.076013	0.013672
806	C	0.8043	0.042404	0.000809
807	H	0.728397	0.033753	0.339348
808	N	0.822222	0.120267	0.053983
809	C	0.750742	0.487931	0.339736
810	C	0.715205	0.468095	0.008745
811	C	0.698375	0.4334	0.018179
812	C	0.718172	0.419328	0.031867
813	C	0.752515	0.435802	0.354538
814	C	0.767654	0.469251	0.340606
815	N	0.704243	0.39082	0.056978
816	H	0.792374	0.480066	0.333884
817	H	0.681995	0.381719	0.069311
818	H	0.717881	0.383251	0.405053
819	H	0.843577	0.126647	0.067654
820	H	0.80985	0.129544	0.401684
821	H	0.817283	0.031625	0.989173
822	H	0.700953	0.478375	0.00064
823	C	0.659136	0.247913	0.991544
824	C	0.638891	0.231434	0.029338
825	C	0.607712	0.229961	0.035622
826	C	0.596229	0.244107	0.002384
827	N	0.616809	0.258105	0.299715
828	N	0.645568	0.259761	0.294571
829	N	0.59067	0.217443	0.074687
830	H	0.598493	0.207941	0.097558
831	H	0.569214	0.215823	0.079776
832	H	0.648856	0.224894	0.055495
833	C	0.767717	0.416545	0.011491
834	C	0.779625	0.404179	0.045963
835	C	0.778158	0.372951	0.04152
836	C	0.765125	0.354622	0.000708
837	N	0.755546	0.369196	0.302053
838	N	0.756452	0.397562	0.307087
839	N	0.786065	0.36048	0.077953
840	H	0.794347	0.373267	0.105673
841	H	0.784962	0.339082	0.07711
842	H	0.785279	0.415857	0.076654
843	C	0.60414	0.3488	0.00654
844	C	0.604763	0.376634	0.027158
845	C	0.635257	0.407812	0.029721
846	C	0.664172	0.410784	0.008253
847	N	0.659699	0.38348	0.318684
848	N	0.632355	0.355067	0.318041
849	N	0.636705	0.432403	0.056087
850	H	0.617078	0.429765	0.071657
851	H	0.657229	0.453359	0.060133
852	H	0.584844	0.372812	0.046334
853	C	0.857466	0.267326	0.007412
854	C	0.882415	0.280898	0.041045
855	C	0.912676	0.280212	0.036872
856	C	0.918062	0.266092	0.997211
857	N	0.893017	0.254527	0.299467
858	N	0.865146	0.25481	0.304195
859	N	0.933825	0.290094	0.072626
860	H	0.929539	0.299238	0.099671
861	H	0.954622	0.289935	0.07158
862	H	0.876744	0.287602	0.071211
863	C	0.76133	0.102367	0.008622
864	C	0.733772	0.103165	0.02769
865	C	0.733442	0.133883	0.029918
866	C	0.760421	0.162979	0.010132
867	N	0.783337	0.158242	0.321365
868	N	0.783849	0.130649	0.320743
869	N	0.709707	0.135323	0.054918
870	H	0.692152	0.115615	0.06966
871	H	0.709749	0.156034	0.059489
872	H	0.716859	0.083096	0.045944
873	C	0.915342	0.158772	0.991196
874	C	0.913623	0.137357	0.026351
875	C	0.884298	0.105919	0.032548
876	C	0.857623	0.095611	0.001193
877	N	0.86253	0.117209	0.300486
878	N	0.889087	0.14626	0.295712
879	N	0.881252	0.0876	0.069835
880	H	0.89939	0.094755	0.09135
881	H	0.861658	0.065937	0.074755
882	H	0.931176	0.146556	0.051352
883	C	0.989396	0.246822	0.66553
884	C	0.969184	0.211343	0.664401
885	C	0.934046	0.194014	0.662307
886	C	0.917376	0.212636	0.333546
887	C	0.935677	0.248123	0.33135
888	C	0.971002	0.264093	0.331616
889	H	0.979763	0.196743	0.664414
890	N	0.884587	0.19659	0.346166
891	C	0.525401	0.263384	0.668899
892	C	0.54337	0.245657	0.333375
893	C	0.577114	0.259555	0.346159
894	C	0.594243	0.293533	0.358941
895	C	0.581063	0.314414	0.680588
896	C	0.54628	0.298785	0.672995
897	N	0.621915	0.30578	0.385588
898	H	0.536924	0.314178	0.667543
899	H	0.627856	0.29085	0.400302
900	H	0.630805	0.327454	0.733038
901	H	0.874115	0.208659	0.356696
902	H	0.873329	0.173712	0.688822
903	H	0.983264	0.2894	0.331066
904	H	0.532074	0.221618	0.322727
905	C	0.767864	0.248725	0.670965
906	C	0.803542	0.266145	0.66992
907	C	0.822949	0.252169	0.684344
908	C	0.805646	0.218189	0.363942
909	C	0.771663	0.197386	0.351345
910	C	0.753066	0.213311	0.341314
911	H	0.816576	0.290042	0.658706
912	N	0.820772	0.205572	0.390504
913	C	0.748847	0.265677	0.666886
914	C	0.764631	0.301172	0.334002
915	C	0.74749	0.319183	0.332987
916	C	0.712001	0.301023	0.332927
917	C	0.694548	0.26557	0.662199
918	C	0.71325	0.248949	0.664785
919	N	0.694921	0.317291	0.342484
920	H	0.699915	0.223645	0.663659
921	H	0.70598	0.340248	0.351783
922	H	0.671734	0.305596	0.682689
923	H	0.808067	0.183646	0.403991
924	H	0.84161	0.220299	0.738794
925	H	0.72856	0.19826	0.333944
926	H	0.789802	0.315344	0.336244
927	C	0.768804	0.02391	0.671744
928	C	0.753477	0.044049	0.676276
929	C	0.772364	0.079064	0.682699
930	C	0.806512	0.092539	0.360833
931	C	0.823657	0.076013	0.347005
932	C	0.8043	0.042404	0.334141
933	H	0.728397	0.033753	0.672682
934	N	0.822222	0.120267	0.387318
935	C	0.750742	0.487931	0.673069
936	C	0.715205	0.468095	0.342079
937	C	0.698375	0.4334	0.351513
938	C	0.718172	0.419328	0.365199
939	C	0.752515	0.435802	0.687871
940	C	0.767654	0.469251	0.673943
941	N	0.704243	0.39082	0.390312
942	H	0.792374	0.480066	0.667216
943	H	0.681995	0.381719	0.402645
944	H	0.717881	0.383251	0.738386
945	H	0.843577	0.126647	0.400986
946	H	0.80985	0.129544	0.735018
947	H	0.817283	0.031625	0.322507
948	H	0.700953	0.478375	0.333972
949	C	0.659136	0.247913	0.324876
950	C	0.638891	0.231434	0.36267
951	C	0.607712	0.229961	0.368955
952	C	0.596229	0.244107	0.335718
953	N	0.616809	0.258105	0.633047
954	N	0.645568	0.259761	0.627905
955	N	0.59067	0.217443	0.40802
956	H	0.598493	0.207941	0.43089
957	H	0.569214	0.215823	0.413111
958	H	0.648856	0.224894	0.388828
959	C	0.767717	0.416545	0.344824
960	C	0.779625	0.404179	0.379296
961	C	0.778158	0.372951	0.374852
962	C	0.765125	0.354622	0.334041
963	N	0.755546	0.369196	0.635387
964	N	0.756452	0.397562	0.640421
965	N	0.786065	0.36048	0.411287
966	H	0.794347	0.373267	0.439006
967	H	0.784962	0.339082	0.410444
968	H	0.785279	0.415857	0.409989
969	C	0.60414	0.3488	0.339874
970	C	0.604763	0.376634	0.360492
971	C	0.635257	0.407812	0.363055
972	C	0.664172	0.410784	0.341587
973	N	0.659699	0.38348	0.652016
974	N	0.632355	0.355067	0.651376
975	N	0.636705	0.432403	0.389422
976	H	0.617078	0.429765	0.404989
977	H	0.657229	0.453359	0.393468
978	H	0.584844	0.372812	0.379667
979	C	0.857466	0.267326	0.340744
980	C	0.882415	0.280898	0.37438
981	C	0.912676	0.280212	0.370206
982	C	0.918062	0.266092	0.330543
983	N	0.893017	0.254527	0.632801
984	N	0.865146	0.25481	0.637528
985	N	0.933825	0.290094	0.40596
986	H	0.929539	0.299238	0.433004
987	H	0.954622	0.289935	0.404914
988	H	0.876744	0.287602	0.404544
989	C	0.76133	0.102367	0.341955
990	C	0.733772	0.103165	0.361022
991	C	0.733442	0.133883	0.36325
992	C	0.760421	0.162979	0.343465
993	N	0.783337	0.158242	0.6547
994	N	0.783849	0.130649	0.654077
995	N	0.709707	0.135323	0.388252
996	H	0.692152	0.115615	0.402993
997	H	0.709749	0.156034	0.392824
998	H	0.716859	0.083096	0.379276
999	C	0.915342	0.158772	0.324528
1000	C	0.913623	0.137357	0.359683
1001	C	0.884298	0.105919	0.36588
1002	C	0.857623	0.095611	0.334526
1003	N	0.86253	0.117209	0.633819
1004	N	0.889087	0.14626	0.629045
1005	N	0.881252	0.0876	0.403168
1006	H	0.89939	0.094755	0.424683
1007	H	0.861658	0.065937	0.408087
1008	H	0.931176	0.146556	0.384684
1009	C	0.989396	0.246822	0.998863
1010	C	0.969184	0.211343	0.997734
1011	C	0.934046	0.194014	0.99564
1012	C	0.917376	0.212636	0.666879
1013	C	0.935677	0.248123	0.664684
1014	C	0.971002	0.264093	0.66495
1015	H	0.979763	0.196743	0.997747
1016	N	0.884587	0.19659	0.679499
1017	C	0.525401	0.263384	0.002232
1018	C	0.54337	0.245657	0.666707
1019	C	0.577114	0.259555	0.679492
1020	C	0.594243	0.293533	0.692275
1021	C	0.581063	0.314414	0.013922
1022	C	0.54628	0.298785	0.006328
1023	N	0.621915	0.30578	0.718921
1024	H	0.536924	0.314178	0.000876
1025	H	0.627856	0.29085	0.733635
1026	H	0.630805	0.327454	0.066372
1027	H	0.874115	0.208659	0.690029
1028	H	0.873329	0.173712	0.022155
1029	H	0.983264	0.2894	0.664401
1030	H	0.532074	0.221618	0.656059
1031	C	0.767864	0.248725	0.004299
1032	C	0.803542	0.266145	0.003253
1033	C	0.822949	0.252169	0.017679
1034	C	0.805646	0.218189	0.697275
1035	C	0.771663	0.197386	0.684678
1036	C	0.753066	0.213311	0.674647
1037	H	0.816576	0.290042	0.992039
1038	N	0.820772	0.205572	0.723837
1039	C	0.748847	0.265677	0.000219
1040	C	0.764631	0.301172	0.667334
1041	C	0.74749	0.319183	0.666319
1042	C	0.712001	0.301023	0.666262
1043	C	0.694548	0.26557	0.995532
1044	C	0.71325	0.248949	0.998118
1045	N	0.694921	0.317291	0.675817
1046	H	0.699915	0.223645	0.996992
1047	H	0.70598	0.340248	0.685116
1048	H	0.671734	0.305596	0.016021
1049	H	0.808067	0.183646	0.737324
1050	H	0.84161	0.220299	0.072128
1051	H	0.72856	0.19826	0.667277
1052	H	0.789802	0.315344	0.669576
1053	C	0.768804	0.02391	0.005078
1054	C	0.753477	0.044049	0.00961
1055	C	0.772364	0.079064	0.016031
1056	C	0.806512	0.092539	0.694166
1057	C	0.823657	0.076013	0.680339
1058	C	0.8043	0.042404	0.667476
1059	H	0.728397	0.033753	0.006015
1060	N	0.822222	0.120267	0.720651
1061	C	0.750742	0.487931	0.006401
1062	C	0.715205	0.468095	0.675413
1063	C	0.698375	0.4334	0.684847
1064	C	0.718172	0.419328	0.698532
1065	C	0.752515	0.435802	0.021206
1066	C	0.767654	0.469251	0.007274
1067	N	0.704243	0.39082	0.723645
1068	H	0.792374	0.480066	0.000553
1069	H	0.681995	0.381719	0.735979
1070	H	0.717881	0.383251	0.07172
1071	H	0.843577	0.126647	0.73432
1072	H	0.80985	0.129544	0.06835
1073	H	0.817283	0.031625	0.65584
1074	H	0.700953	0.478375	0.667307
1075	C	0.659136	0.247913	0.65821
1076	C	0.638891	0.231434	0.696004
1077	C	0.607712	0.229961	0.702289
1078	C	0.596229	0.244107	0.66905
1079	N	0.616809	0.258105	0.966384
1080	N	0.645568	0.259761	0.961239
1081	N	0.59067	0.217443	0.741353
1082	H	0.598493	0.207941	0.764223
1083	H	0.569214	0.215823	0.746444
1084	H	0.648856	0.224894	0.722161
1085	C	0.767717	0.416545	0.678157
1086	C	0.779625	0.404179	0.71263
1087	C	0.778158	0.372951	0.708186
1088	C	0.765125	0.354622	0.667375
1089	N	0.755546	0.369196	0.96872
1090	N	0.756452	0.397562	0.973754
1091	N	0.786065	0.36048	0.74462
1092	H	0.794347	0.373267	0.772339
1093	H	0.784962	0.339082	0.743777
1094	H	0.785279	0.415857	0.743322
1095	C	0.60414	0.3488	0.673208
1096	C	0.604763	0.376634	0.693826
1097	C	0.635257	0.407812	0.696388
1098	C	0.664172	0.410784	0.67492
1099	N	0.659699	0.38348	0.98535
1100	N	0.632355	0.355067	0.984709
1101	N	0.636705	0.432403	0.722755
1102	H	0.617078	0.429765	0.738325
1103	H	0.657229	0.453359	0.726801
1104	H	0.584844	0.372812	0.713
1105	C	0.857466	0.267326	0.674077
1106	C	0.882415	0.280898	0.707714
1107	C	0.912676	0.280212	0.703539
1108	C	0.918062	0.266092	0.663878
1109	N	0.893017	0.254527	0.966134
1110	N	0.865146	0.25481	0.970861
1111	N	0.933825	0.290094	0.739293
1112	H	0.929539	0.299238	0.766337
1113	H	0.954622	0.289935	0.738248
1114	H	0.876744	0.287602	0.737877
1115	C	0.76133	0.102367	0.675288
1116	C	0.733772	0.103165	0.694358
1117	C	0.733442	0.133883	0.696587
1118	C	0.760421	0.162979	0.676798
1119	N	0.783337	0.158242	0.988034
1120	N	0.783849	0.130649	0.98741
1121	N	0.709707	0.135323	0.721585
1122	H	0.692152	0.115615	0.736326
1123	H	0.709749	0.156034	0.726157
1124	H	0.716859	0.083096	0.712609
1125	C	0.915342	0.158772	0.657863
1126	C	0.913623	0.137357	0.693016
1127	C	0.884298	0.105919	0.699214
1128	C	0.857623	0.095611	0.66786
1129	N	0.86253	0.117209	0.967153
1130	N	0.889087	0.14626	0.962378
1131	N	0.881252	0.0876	0.736501
1132	H	0.89939	0.094755	0.758016
1133	H	0.861658	0.065937	0.741421
1134	H	0.931176	0.146556	0.718018
1135	C	0.989395	0.746822	0.332197
1136	C	0.969184	0.711342	0.331066
1137	C	0.934047	0.694014	0.328975
1138	C	0.917377	0.712635	0.000212
1139	C	0.935678	0.748123	0.998017
1140	C	0.971002	0.764095	0.998284
1141	H	0.979763	0.696742	0.33108
1142	N	0.884588	0.696588	0.012832
1143	C	0.5254	0.763384	0.335564
1144	C	0.543371	0.745656	4e-05
1145	C	0.577115	0.759554	0.012826
1146	C	0.594244	0.793532	0.025608
1147	C	0.581063	0.814413	0.347255
1148	C	0.54628	0.798784	0.339662
1149	N	0.621915	0.805779	0.052253
1150	H	0.536925	0.814177	0.334211
1151	H	0.627854	0.790849	0.066968
1152	H	0.630806	0.827453	0.399705
1153	H	0.874114	0.708659	0.023361
1154	H	0.87333	0.67371	0.355489
1155	H	0.983262	0.789399	0.997734
1156	H	0.532075	0.721617	0.989396
1157	C	0.767864	0.748724	0.337632
1158	C	0.803544	0.766146	0.336586
1159	C	0.822949	0.752169	0.351011
1160	C	0.805645	0.718188	0.030609
1161	C	0.771662	0.697386	0.018011
1162	C	0.753067	0.713311	0.007982
1163	H	0.816577	0.790041	0.325371
1164	N	0.820773	0.705573	0.057171
1165	C	0.748848	0.765676	0.333554
1166	C	0.764632	0.801172	0.000667
1167	C	0.747491	0.819183	0.999652
1168	C	0.712001	0.801025	0.999595
1169	C	0.694549	0.765569	0.328865
1170	C	0.713249	0.748951	0.331451
1171	N	0.69492	0.81729	0.009151
1172	H	0.699915	0.723644	0.330326
1173	H	0.705981	0.840248	0.01845
1174	H	0.671732	0.805595	0.349356
1175	H	0.808067	0.683645	0.070658
1176	H	0.841611	0.720299	0.405461
1177	H	0.728558	0.698259	0.00061
1178	H	0.789803	0.815343	0.002913
1179	C	0.768804	0.523909	0.338411
1180	C	0.753477	0.544049	0.342943
1181	C	0.772366	0.579064	0.349366
1182	C	0.806514	0.592539	0.0275
1183	C	0.823656	0.576013	0.013672
1184	C	0.804299	0.542403	0.000809
1185	H	0.728398	0.533751	0.339348
1186	N	0.822223	0.620266	0.053983
1187	C	0.750741	0.987931	0.339736
1188	C	0.715204	0.968094	0.008745
1189	C	0.698376	0.9334	0.018179
1190	C	0.718171	0.919327	0.031867
1191	C	0.752513	0.935802	0.354538
1192	C	0.767653	0.96925	0.340606
1193	N	0.704242	0.89082	0.056978
1194	H	0.792373	0.980065	0.333884
1195	H	0.681996	0.881718	0.069311
1196	H	0.717882	0.88325	0.405053
1197	H	0.843578	0.626647	0.067654
1198	H	0.809851	0.629544	0.401684
1199	H	0.817284	0.531625	0.989173
1200	H	0.700955	0.978377	0.00064
1201	C	0.659138	0.747914	0.991544
1202	C	0.638892	0.731434	0.029338
1203	C	0.607712	0.72996	0.035622
1204	C	0.596228	0.744107	0.002384
1205	N	0.616807	0.758104	0.299715
1206	N	0.645569	0.75976	0.294571
1207	N	0.59067	0.717442	0.074687
1208	H	0.598492	0.70794	0.097558
1209	H	0.569215	0.715823	0.079776
1210	H	0.648858	0.724894	0.055495
1211	C	0.767717	0.916545	0.011491
1212	C	0.779624	0.904178	0.045963
1213	C	0.778159	0.87295	0.04152
1214	C	0.765126	0.854621	0.000708
1215	N	0.755547	0.869195	0.302053
1216	N	0.756453	0.897561	0.307087
1217	N	0.786067	0.860482	0.077953
1218	H	0.794346	0.873266	0.105673
1219	H	0.784963	0.839081	0.07711
1220	H	0.78528	0.915856	0.076654
1221	C	0.604139	0.848799	0.006539
1222	C	0.604763	0.876633	0.027159
1223	C	0.635256	0.907811	0.029721
1224	C	0.664173	0.910783	0.008253
1225	N	0.659699	0.883479	0.318684
1226	N	0.632357	0.855068	0.318041
1227	N	0.636705	0.932402	0.056087
1228	H	0.617079	0.929764	0.071657
1229	H	0.657228	0.953358	0.060133
1230	H	0.584844	0.872813	0.046334
1231	C	0.857464	0.767325	0.007412
1232	C	0.882414	0.780897	0.041045
1233	C	0.912675	0.780211	0.036872
1234	C	0.918062	0.766092	0.997211
1235	N	0.893018	0.754526	0.299467
1236	N	0.865146	0.754809	0.304195
1237	N	0.933823	0.790093	0.072626
1238	H	0.92954	0.799237	0.099671
1239	H	0.954622	0.789934	0.07158
1240	H	0.876742	0.787602	0.071211
1241	C	0.761332	0.602367	0.008622
1242	C	0.733771	0.603165	0.02769
1243	C	0.733444	0.633883	0.029918
1244	C	0.760419	0.662978	0.010132
1245	N	0.783338	0.658241	0.321365
1246	N	0.783847	0.630648	0.320743
1247	N	0.709708	0.635323	0.054918
1248	H	0.692152	0.615614	0.06966
1249	H	0.70975	0.656035	0.059489
1250	H	0.71686	0.583095	0.045944
1251	C	0.915343	0.658773	0.991196
1252	C	0.913624	0.637357	0.026351
1253	C	0.884296	0.605918	0.032548
1254	C	0.857624	0.595611	0.001193
1255	N	0.86253	0.617208	0.300486
1256	N	0.889089	0.64626	0.295712
1257	N	0.881254	0.587601	0.069835
1258	H	0.899391	0.594755	0.09135
1259	H	0.861657	0.565937	0.074755
1260	H	0.931175	0.646556	0.051352
1261	C	0.989395	0.746822	0.66553
1262	C	0.969184	0.711342	0.664401
1263	C	0.934047	0.694014	0.662307
1264	C	0.917377	0.712635	0.333546
1265	C	0.935678	0.748123	0.33135
1266	C	0.971002	0.764095	0.331616
1267	H	0.979763	0.696742	0.664414
1268	N	0.884588	0.696588	0.346166
1269	C	0.5254	0.763384	0.668899
1270	C	0.543371	0.745656	0.333375
1271	C	0.577115	0.759554	0.346159
1272	C	0.594244	0.793532	0.358941
1273	C	0.581063	0.814413	0.680588
1274	C	0.54628	0.798784	0.672995
1275	N	0.621915	0.805779	0.385588
1276	H	0.536925	0.814177	0.667543
1277	H	0.627854	0.790849	0.400302
1278	H	0.630806	0.827453	0.733038
1279	H	0.874114	0.708659	0.356696
1280	H	0.87333	0.67371	0.688822
1281	H	0.983262	0.789399	0.331066
1282	H	0.532075	0.721617	0.322727
1283	C	0.767864	0.748724	0.670965
1284	C	0.803544	0.766146	0.66992
1285	C	0.822949	0.752169	0.684344
1286	C	0.805645	0.718188	0.363942
1287	C	0.771662	0.697386	0.351345
1288	C	0.753067	0.713311	0.341314
1289	H	0.816577	0.790041	0.658706
1290	N	0.820773	0.705573	0.390504
1291	C	0.748848	0.765676	0.666886
1292	C	0.764632	0.801172	0.334002
1293	C	0.747491	0.819183	0.332987
1294	C	0.712001	0.801025	0.332927
1295	C	0.694549	0.765569	0.662199
1296	C	0.713249	0.748951	0.664785
1297	N	0.69492	0.81729	0.342484
1298	H	0.699915	0.723644	0.663659
1299	H	0.705981	0.840248	0.351783
1300	H	0.671732	0.805595	0.682689
1301	H	0.808067	0.683645	0.403991
1302	H	0.841611	0.720299	0.738794
1303	H	0.728558	0.698259	0.333944
1304	H	0.789803	0.815343	0.336244
1305	C	0.768804	0.523909	0.671744
1306	C	0.753477	0.544049	0.676276
1307	C	0.772366	0.579064	0.682699
1308	C	0.806514	0.592539	0.360833
1309	C	0.823656	0.576013	0.347005
1310	C	0.804299	0.542403	0.334141
1311	H	0.728398	0.533751	0.672682
1312	N	0.822223	0.620266	0.387318
1313	C	0.750741	0.987931	0.673069
1314	C	0.715204	0.968094	0.342079
1315	C	0.698376	0.9334	0.351513
1316	C	0.718171	0.919327	0.365199
1317	C	0.752513	0.935802	0.687871
1318	C	0.767653	0.96925	0.673943
1319	N	0.704242	0.89082	0.390312
1320	H	0.792373	0.980065	0.667216
1321	H	0.681996	0.881718	0.402645
1322	H	0.717882	0.88325	0.738386
1323	H	0.843578	0.626647	0.400986
1324	H	0.809851	0.629544	0.735018
1325	H	0.817284	0.531625	0.322507
1326	H	0.700955	0.978377	0.333972
1327	C	0.659138	0.747914	0.324876
1328	C	0.638892	0.731434	0.36267
1329	C	0.607712	0.72996	0.368955
1330	C	0.596228	0.744107	0.335718
1331	N	0.616807	0.758104	0.633047
1332	N	0.645569	0.75976	0.627905
1333	N	0.59067	0.717442	0.40802
1334	H	0.598492	0.70794	0.43089
1335	H	0.569215	0.715823	0.413111
1336	H	0.648858	0.724894	0.388828
1337	C	0.767717	0.916545	0.344824
1338	C	0.779624	0.904178	0.379296
1339	C	0.778159	0.87295	0.374852
1340	C	0.765126	0.854621	0.334041
1341	N	0.755547	0.869195	0.635387
1342	N	0.756453	0.897561	0.640421
1343	N	0.786067	0.860482	0.411287
1344	H	0.794346	0.873266	0.439006
1345	H	0.784963	0.839081	0.410444
1346	H	0.78528	0.915856	0.409989
1347	C	0.604139	0.848799	0.339874
1348	C	0.604763	0.876633	0.360492
1349	C	0.635256	0.907811	0.363055
1350	C	0.664173	0.910783	0.341587
1351	N	0.659699	0.883479	0.652016
1352	N	0.632357	0.855068	0.651376
1353	N	0.636705	0.932402	0.389422
1354	H	0.617079	0.929764	0.404992
1355	H	0.657228	0.953358	0.393468
1356	H	0.584844	0.872813	0.379667
1357	C	0.857464	0.767325	0.340744
1358	C	0.882414	0.780897	0.37438
1359	C	0.912675	0.780211	0.370206
1360	C	0.918062	0.766092	0.330543
1361	N	0.893018	0.754526	0.632801
1362	N	0.865146	0.754809	0.637528
1363	N	0.933823	0.790093	0.40596
1364	H	0.92954	0.799237	0.433004
1365	H	0.954622	0.789934	0.404914
1366	H	0.876742	0.787602	0.404544
1367	C	0.761332	0.602367	0.341955
1368	C	0.733771	0.603165	0.361025
1369	C	0.733444	0.633883	0.36325
1370	C	0.760419	0.662978	0.343465
1371	N	0.783338	0.658241	0.6547
1372	N	0.783847	0.630648	0.654077
1373	N	0.709708	0.635323	0.388252
1374	H	0.692152	0.615614	0.402993
1375	H	0.70975	0.656035	0.392824
1376	H	0.71686	0.583095	0.379276
1377	C	0.915343	0.658773	0.324528
1378	C	0.913624	0.637357	0.359683
1379	C	0.884296	0.605918	0.36588
1380	C	0.857624	0.595611	0.334526
1381	N	0.86253	0.617208	0.633819
1382	N	0.889089	0.64626	0.629045
1383	N	0.881254	0.587601	0.403168
1384	H	0.899391	0.594755	0.424683
1385	H	0.861657	0.565937	0.408087
1386	H	0.931175	0.646556	0.384684
1387	C	0.989395	0.746822	0.998863
1388	C	0.969184	0.711342	0.997734
1389	C	0.934047	0.694014	0.99564
1390	C	0.917377	0.712635	0.666879
1391	C	0.935678	0.748123	0.664684
1392	C	0.971002	0.764095	0.66495
1393	H	0.979763	0.696742	0.997747
1394	N	0.884588	0.696588	0.679499
1395	C	0.5254	0.763384	0.002232
1396	C	0.543371	0.745656	0.666707
1397	C	0.577115	0.759554	0.679492
1398	C	0.594244	0.793532	0.692275
1399	C	0.581063	0.814413	0.013922
1400	C	0.54628	0.798784	0.006328
1401	N	0.621915	0.805779	0.718921
1402	H	0.536925	0.814177	0.000876
1403	H	0.627854	0.790849	0.733635
1404	H	0.630806	0.827453	0.066372
1405	H	0.874114	0.708659	0.690029
1406	H	0.87333	0.67371	0.022155
1407	H	0.983262	0.789399	0.664401
1408	H	0.532075	0.721617	0.656059
1409	C	0.767864	0.748724	0.004299
1410	C	0.803544	0.766146	0.003253
1411	C	0.822949	0.752169	0.017679
1412	C	0.805645	0.718188	0.697275
1413	C	0.771662	0.697386	0.684678
1414	C	0.753067	0.713311	0.674647
1415	H	0.816577	0.790041	0.992039
1416	N	0.820773	0.705573	0.723837
1417	C	0.748848	0.765676	0.000219
1418	C	0.764632	0.801172	0.667334
1419	C	0.747491	0.819183	0.666319
1420	C	0.712001	0.801025	0.666262
1421	C	0.694549	0.765569	0.995532
1422	C	0.713249	0.748951	0.998118
1423	N	0.69492	0.81729	0.675817
1424	H	0.699915	0.723644	0.996992
1425	H	0.705981	0.840248	0.685116
1426	H	0.671732	0.805595	0.016021
1427	H	0.808067	0.683645	0.737324
1428	H	0.841611	0.720299	0.072128
1429	H	0.728558	0.698259	0.667277
1430	H	0.789803	0.815343	0.669576
1431	C	0.768804	0.523909	0.005078
1432	C	0.753477	0.544049	0.00961
1433	C	0.772366	0.579064	0.016031
1434	C	0.806514	0.592539	0.694166
1435	C	0.823656	0.576013	0.680339
1436	C	0.804299	0.542403	0.667476
1437	H	0.728398	0.533751	0.006015
1438	N	0.822223	0.620266	0.720651
1439	C	0.750741	0.987931	0.006401
1440	C	0.715204	0.968094	0.675413
1441	C	0.698376	0.9334	0.684847
1442	C	0.718171	0.919327	0.698532
1443	C	0.752513	0.935802	0.021206
1444	C	0.767653	0.96925	0.007274
1445	N	0.704242	0.89082	0.723645
1446	H	0.792373	0.980065	0.000553
1447	H	0.681996	0.881718	0.735979
1448	H	0.717882	0.88325	0.071719
1449	H	0.843578	0.626647	0.73432
1450	H	0.809851	0.629544	0.06835
1451	H	0.817284	0.531625	0.65584
1452	H	0.700955	0.978377	0.667307
1453	C	0.659138	0.747914	0.65821
1454	C	0.638892	0.731434	0.696004
1455	C	0.607712	0.72996	0.702289
1456	C	0.596228	0.744107	0.66905
1457	N	0.616807	0.758104	0.966384
1458	N	0.645569	0.75976	0.961239
1459	N	0.59067	0.717442	0.741353
1460	H	0.598492	0.70794	0.764223
1461	H	0.569215	0.715823	0.746444
1462	H	0.648858	0.724894	0.722161
1463	C	0.767717	0.916545	0.678157
1464	C	0.779624	0.904178	0.71263
1465	C	0.778159	0.87295	0.708186
1466	C	0.765126	0.854621	0.667375
1467	N	0.755547	0.869195	0.96872
1468	N	0.756453	0.897561	0.973754
1469	N	0.786067	0.860482	0.74462
1470	H	0.794346	0.873266	0.772339
1471	H	0.784963	0.839081	0.743777
1472	H	0.78528	0.915856	0.743322
1473	C	0.604139	0.848799	0.673208
1474	C	0.604763	0.876633	0.693826
1475	C	0.635256	0.907811	0.696388
1476	C	0.664173	0.910783	0.67492
1477	N	0.659699	0.883479	0.98535
1478	N	0.632357	0.855068	0.984709
1479	N	0.636705	0.932402	0.722755
1480	H	0.617079	0.929764	0.738325
1481	H	0.657228	0.953358	0.726801
1482	H	0.584844	0.872813	0.713
1483	C	0.857464	0.767325	0.674077
1484	C	0.882414	0.780897	0.707714
1485	C	0.912675	0.780211	0.703539
1486	C	0.918062	0.766092	0.663878
1487	N	0.893018	0.754526	0.966134
1488	N	0.865146	0.754809	0.970861
1489	N	0.933823	0.790093	0.739293
1490	H	0.92954	0.799237	0.766337
1491	H	0.954622	0.789934	0.738248
1492	H	0.876742	0.787602	0.737877
1493	C	0.761332	0.602367	0.675288
1494	C	0.733771	0.603165	0.694358
1495	C	0.733444	0.633883	0.696587
1496	C	0.760419	0.662978	0.676798
1497	N	0.783338	0.658241	0.988034
1498	N	0.783847	0.630648	0.98741
1499	N	0.709708	0.635323	0.721585
1500	H	0.692152	0.615614	0.736326
1501	H	0.70975	0.656035	0.726157
1502	H	0.71686	0.583095	0.712609
1503	C	0.915343	0.658773	0.657863
1504	C	0.913624	0.637357	0.693016
1505	C	0.884296	0.605918	0.699214
1506	C	0.857624	0.595611	0.66786
1507	N	0.86253	0.617208	0.967153
1508	N	0.889089	0.64626	0.962378
1509	N	0.881254	0.587601	0.736501
1510	H	0.899391	0.594755	0.758016
1511	H	0.861657	0.565937	0.741421
1512	H	0.931175	0.646556	0.718018
