data_C864H576N72_2018-02-15_10:35:59
#******************************************
#
# CIF file created by Zeo++
# Zeo++ is an open source package to
# analyze microporous materials
#
#*******************************************

_cell_length_a		46.3797   
_cell_length_b		46.3796   
_cell_length_c		29.5198   
_cell_angle_alpha		90   
_cell_angle_beta		90   
_cell_angle_gamma		120   

_symmetry_space_group_name_H-M		'P1'
_symmetry_Int_Tables_number		1
_symmetry_cell_setting		Monoclinic

loop_
_symmetry_equiv_pos_as_xyz
'+x,+y,+z'

loop_
_atom_site_label
_atom_site_type_symbol
_atom_site_fract_x
_atom_site_fract_y
_atom_site_fract_z
1	C	0.029976	0.267308	0.338982
2	C	0.049505	0.251262	0.005449
3	C	0.083819	0.267201	0.993776
4	C	0.100468	0.30192	0.982746
5	C	0.083784	0.320445	0.323656
6	C	0.049547	0.302771	0.335712
7	N	0.132687	0.31816	0.967722
8	H	0.038864	0.316992	0.341523
9	H	0.146211	0.30788	0.965236
10	H	0.141956	0.339419	0.286029
11	H	0.038675	0.226697	0.013808
12	C	0.141702	0.246423	0.051256
13	C	0.111854	0.24698	0.043752
14	C	0.101847	0.249863	0.999399
15	C	0.119679	0.246069	0.296345
16	C	0.149964	0.246368	0.30386
17	C	0.162966	0.249363	0.014821
18	H	0.114319	0.249589	0.263868
19	H	0.100946	0.25129	0.071105
20	H	0.150787	0.250346	0.083654
21	H	0.164932	0.250172	0.276364
22	C	0.116188	0.366975	0.041579
23	C	0.14585	0.397745	0.048022
24	C	0.163822	0.418242	0.01079
25	C	0.148407	0.408478	0.301019
26	C	0.118192	0.378156	0.294785
27	C	0.102601	0.355619	0.9978
28	H	0.161449	0.420859	0.272658
29	H	0.157172	0.402064	0.079042
30	H	0.107251	0.350884	0.068474
31	H	0.110768	0.370109	0.262317
32	C	0.029976	0.267308	0.672317
33	C	0.049505	0.251262	0.338782
34	C	0.083819	0.267201	0.327108
35	C	0.100468	0.30192	0.316078
36	C	0.083784	0.320445	0.656989
37	C	0.049547	0.302771	0.669045
38	N	0.132687	0.31816	0.301054
39	H	0.038864	0.316992	0.674855
40	H	0.146211	0.30788	0.298566
41	H	0.141956	0.339419	0.619363
42	H	0.038675	0.226697	0.347143
43	C	0.141702	0.246423	0.384589
44	C	0.111854	0.24698	0.377085
45	C	0.101847	0.249863	0.332732
46	C	0.119679	0.246069	0.629678
47	C	0.149964	0.246368	0.637195
48	C	0.162966	0.249363	0.348156
49	H	0.114319	0.249589	0.597202
50	H	0.100946	0.25129	0.40444
51	H	0.150787	0.250346	0.416987
52	H	0.164932	0.250172	0.609698
53	C	0.116188	0.366975	0.374914
54	C	0.14585	0.397745	0.381357
55	C	0.163822	0.418242	0.344124
56	C	0.148407	0.408478	0.634353
57	C	0.118192	0.378156	0.62812
58	C	0.102601	0.355619	0.331132
59	H	0.161449	0.420859	0.605992
60	H	0.157172	0.402064	0.412377
61	H	0.107251	0.350884	0.401808
62	H	0.110768	0.370109	0.59565
63	C	0.029976	0.267308	0.005652
64	C	0.049505	0.251262	0.672117
65	C	0.083819	0.267201	0.660441
66	C	0.100468	0.30192	0.649411
67	C	0.083784	0.320445	0.990324
68	C	0.049547	0.302771	0.00238
69	N	0.132687	0.31816	0.634387
70	H	0.038864	0.316992	0.008187
71	H	0.146211	0.30788	0.6319
72	H	0.141956	0.339419	0.952698
73	H	0.038675	0.226697	0.680475
74	C	0.141702	0.246423	0.717924
75	C	0.111854	0.24698	0.710421
76	C	0.101847	0.249863	0.666067
77	C	0.119679	0.246069	0.963013
78	C	0.149964	0.246368	0.970527
79	C	0.162966	0.249363	0.681487
80	H	0.114319	0.249589	0.930537
81	H	0.100946	0.25129	0.737772
82	H	0.150787	0.250346	0.750322
83	H	0.164932	0.250172	0.94303
84	C	0.116188	0.366975	0.708246
85	C	0.14585	0.397745	0.714689
86	C	0.163822	0.418242	0.677456
87	C	0.148407	0.408478	0.967685
88	C	0.118192	0.378156	0.961452
89	C	0.102601	0.355619	0.664465
90	H	0.161449	0.420859	0.939324
91	H	0.157172	0.402064	0.745709
92	H	0.107251	0.350884	0.735143
93	H	0.110768	0.370109	0.928985
94	C	0.029977	0.767309	0.338979
95	C	0.049504	0.75126	0.005453
96	C	0.083819	0.767199	0.993779
97	C	0.100468	0.801915	0.982742
98	C	0.083781	0.820441	0.323647
99	C	0.049547	0.802769	0.335702
100	N	0.132686	0.818155	0.967719
101	H	0.038864	0.816993	0.341506
102	H	0.14621	0.807876	0.965239
103	H	0.141954	0.839412	0.286023
104	H	0.038674	0.726697	0.013814
105	C	0.141701	0.746425	0.051269
106	C	0.111854	0.746981	0.043762
107	C	0.101847	0.749861	0.999409
108	C	0.119679	0.746064	0.296356
109	C	0.149964	0.746366	0.303874
110	C	0.162967	0.749366	0.014836
111	H	0.114319	0.749582	0.263877
112	H	0.100944	0.751293	0.071113
113	H	0.150786	0.750352	0.083667
114	H	0.164931	0.750165	0.276378
115	C	0.116191	0.866975	0.041566
116	C	0.145852	0.897743	0.048007
117	C	0.163824	0.91824	0.010774
118	C	0.148408	0.908473	0.301003
119	C	0.118193	0.878151	0.294771
120	C	0.102601	0.855617	0.997787
121	H	0.161453	0.920854	0.272641
122	H	0.157174	0.902065	0.079027
123	H	0.107253	0.850885	0.068462
124	H	0.11077	0.870105	0.262304
125	C	0.029977	0.767309	0.672314
126	C	0.049504	0.75126	0.338786
127	C	0.083819	0.767199	0.327111
128	C	0.100468	0.801915	0.316076
129	C	0.083781	0.820441	0.656982
130	C	0.049547	0.802769	0.669035
131	N	0.132686	0.818155	0.301052
132	H	0.038864	0.816993	0.674841
133	H	0.14621	0.807876	0.298571
134	H	0.141954	0.839412	0.619356
135	H	0.038674	0.726697	0.347146
136	C	0.141701	0.746425	0.384602
137	C	0.111854	0.746981	0.377096
138	C	0.101847	0.749861	0.332741
139	C	0.119679	0.746064	0.629688
140	C	0.149964	0.746366	0.637209
141	C	0.162967	0.749366	0.348169
142	H	0.114319	0.749582	0.597212
143	H	0.100944	0.751293	0.404447
144	H	0.150786	0.750352	0.417001
145	H	0.164931	0.750165	0.609712
146	C	0.116191	0.866975	0.3749
147	C	0.145852	0.897743	0.38134
148	C	0.163824	0.91824	0.344108
149	C	0.148408	0.908473	0.634336
150	C	0.118193	0.878151	0.628106
151	C	0.102601	0.855617	0.33112
152	H	0.161453	0.920854	0.605976
153	H	0.157174	0.902065	0.41236
154	H	0.107253	0.850885	0.401798
155	H	0.11077	0.870105	0.595637
156	C	0.029977	0.767309	0.005646
157	C	0.049504	0.75126	0.672117
158	C	0.083819	0.767199	0.660444
159	C	0.100468	0.801915	0.649411
160	C	0.083781	0.820441	0.990314
161	C	0.049547	0.802769	0.00237
162	N	0.132686	0.818155	0.634387
163	H	0.038864	0.816993	0.008173
164	H	0.14621	0.807876	0.631904
165	H	0.141954	0.839412	0.952691
166	H	0.038674	0.726697	0.680481
167	C	0.141701	0.746425	0.717937
168	C	0.111854	0.746981	0.710431
169	C	0.101847	0.749861	0.666074
170	C	0.119679	0.746064	0.963024
171	C	0.149964	0.746366	0.97054
172	C	0.162967	0.749366	0.681504
173	H	0.114319	0.749582	0.930544
174	H	0.100944	0.751293	0.737782
175	H	0.150786	0.750352	0.750336
176	H	0.164931	0.750165	0.943047
177	C	0.116191	0.866975	0.708232
178	C	0.145852	0.897743	0.714675
179	C	0.163824	0.91824	0.677443
180	C	0.148408	0.908473	0.967671
181	C	0.118193	0.878151	0.961438
182	C	0.102601	0.855617	0.664455
183	H	0.161453	0.920854	0.939311
184	H	0.157174	0.902065	0.745695
185	H	0.107253	0.850885	0.735129
186	H	0.11077	0.870105	0.928972
187	C	0.271259	0.24997	0.342106
188	C	0.272563	0.196283	0.0076
189	C	0.255335	0.214377	0.008515
190	C	0.252751	0.267622	0.345507
191	C	0.268476	0.302973	0.01689
192	C	0.251421	0.320396	0.027292
193	C	0.215897	0.30198	0.031211
194	C	0.198368	0.267298	0.353335
195	C	0.217171	0.251472	0.343586
196	N	0.199032	0.31813	0.042616
197	H	0.203695	0.226862	0.335471
198	H	0.209841	0.339362	0.05771
199	H	0.175218	0.308239	0.373793
200	H	0.230115	0.200372	0.011192
201	H	0.29364	0.317311	0.014049
202	C	0.271592	0.026832	0.340656
203	C	0.255694	0.046332	0.3365
204	C	0.272441	0.080454	0.324024
205	H	0.230693	0.035653	0.341408
206	C	0.253383	0.490699	0.344057
207	C	0.217742	0.471165	0.010906
208	C	0.199406	0.435824	0.012392
209	C	0.217334	0.41822	0.009986
210	C	0.252888	0.43615	0.343003
211	C	0.269696	0.471409	0.344548
212	N	0.200581	0.384293	0.00695
213	H	0.294994	0.482891	0.344111
214	H	0.176949	0.370963	0.010684
215	H	0.211161	0.372034	0.330733
216	H	0.203836	0.48255	0.010463
217	C	0.272772	0.406478	0.056435
218	C	0.272407	0.37599	0.061442
219	C	0.268751	0.355854	0.023336
220	C	0.271186	0.370109	0.313352
221	C	0.27276	0.401208	0.308443
222	C	0.271162	0.418992	0.013259
223	H	0.266578	0.355737	0.284975
224	H	0.268571	0.365825	0.09319
225	H	0.269141	0.41686	0.084939
226	H	0.268883	0.407669	0.276784
227	C	0.258881	0.11397	0.040526
228	C	0.257765	0.14372	0.045585
229	C	0.254624	0.160728	0.007594
230	C	0.24851	0.144251	0.298538
231	C	0.248839	0.114062	0.293621
232	C	0.256187	0.099419	0.997367
233	H	0.248922	0.156636	0.269605
234	H	0.265186	0.155884	0.076005
235	H	0.266525	0.105836	0.067792
236	H	0.249104	0.105914	0.261473
237	C	0.271259	0.24997	0.675441
238	C	0.272563	0.196283	0.340933
239	C	0.255335	0.214377	0.341848
240	C	0.252751	0.267622	0.678842
241	C	0.268476	0.302973	0.350225
242	C	0.251421	0.320396	0.360625
243	C	0.215897	0.30198	0.364545
244	C	0.198368	0.267298	0.68667
245	C	0.217171	0.251472	0.676921
246	N	0.199032	0.31813	0.375951
247	H	0.203695	0.226862	0.668804
248	H	0.209841	0.339362	0.391042
249	H	0.175218	0.308239	0.707128
250	H	0.230115	0.200372	0.344524
251	H	0.29364	0.317311	0.347383
252	C	0.271592	0.026832	0.673991
253	C	0.255694	0.046332	0.669834
254	C	0.272441	0.080454	0.657358
255	H	0.230693	0.035653	0.674739
256	C	0.253383	0.490699	0.677392
257	C	0.217742	0.471165	0.34424
258	C	0.199406	0.435824	0.345727
259	C	0.217334	0.41822	0.343318
260	C	0.252888	0.43615	0.676338
261	C	0.269696	0.471409	0.677883
262	N	0.200581	0.384293	0.34028
263	H	0.294994	0.482891	0.677446
264	H	0.176949	0.370963	0.344019
265	H	0.211161	0.372034	0.664065
266	H	0.203836	0.48255	0.343796
267	C	0.272772	0.406478	0.389768
268	C	0.272407	0.37599	0.394775
269	C	0.268751	0.355854	0.356669
270	C	0.271186	0.370109	0.646684
271	C	0.27276	0.401208	0.641775
272	C	0.271162	0.418992	0.346594
273	H	0.266578	0.355737	0.61831
274	H	0.268571	0.365825	0.426523
275	H	0.269141	0.41686	0.418271
276	H	0.268883	0.407669	0.610118
277	C	0.258881	0.11397	0.37386
278	C	0.257765	0.14372	0.378918
279	C	0.254624	0.160728	0.340927
280	C	0.24851	0.144251	0.631873
281	C	0.248839	0.114062	0.626955
282	C	0.256187	0.099419	0.3307
283	H	0.248922	0.156636	0.60294
284	H	0.265186	0.155884	0.409338
285	H	0.266525	0.105836	0.401127
286	H	0.249104	0.105914	0.594807
287	C	0.271259	0.24997	0.008772
288	C	0.272563	0.196283	0.674265
289	C	0.255335	0.214377	0.675183
290	C	0.252751	0.267622	0.012173
291	C	0.268476	0.302973	0.683557
292	C	0.251421	0.320396	0.69396
293	C	0.215897	0.30198	0.69788
294	C	0.198368	0.267298	0.020003
295	C	0.217171	0.251472	0.010254
296	N	0.199032	0.31813	0.709282
297	H	0.203695	0.226862	0.00214
298	H	0.209841	0.339362	0.724377
299	H	0.175218	0.308239	0.04046
300	H	0.230115	0.200372	0.677859
301	H	0.29364	0.317311	0.680715
302	C	0.271592	0.026832	0.007323
303	C	0.255694	0.046332	0.003169
304	C	0.272441	0.080454	0.990693
305	H	0.230693	0.035653	0.008075
306	C	0.253383	0.490699	0.010724
307	C	0.217742	0.471165	0.677575
308	C	0.199406	0.435824	0.679059
309	C	0.217334	0.41822	0.676653
310	C	0.252888	0.43615	0.009671
311	C	0.269696	0.471409	0.011215
312	N	0.200581	0.384293	0.673615
313	H	0.294994	0.482891	0.010778
314	H	0.176949	0.370963	0.677351
315	H	0.211161	0.372034	0.9974
316	H	0.203836	0.48255	0.677131
317	C	0.272772	0.406478	0.723104
318	C	0.272407	0.37599	0.72811
319	C	0.268751	0.355854	0.690004
320	C	0.271186	0.370109	0.980019
321	C	0.27276	0.401208	0.97511
322	C	0.271162	0.418992	0.679926
323	H	0.266578	0.355737	0.951641
324	H	0.268571	0.365825	0.759858
325	H	0.269141	0.41686	0.751606
326	H	0.268883	0.407669	0.94345
327	C	0.258881	0.11397	0.707196
328	C	0.257765	0.14372	0.712253
329	C	0.254624	0.160728	0.674262
330	C	0.24851	0.144251	0.965205
331	C	0.248839	0.114062	0.96029
332	C	0.256187	0.099419	0.664035
333	H	0.248922	0.156636	0.936272
334	H	0.265186	0.155884	0.742673
335	H	0.266525	0.105836	0.734459
336	H	0.249104	0.105914	0.928142
337	C	0.271259	0.749971	0.342112
338	C	0.272561	0.696284	0.007597
339	C	0.255333	0.714376	0.008518
340	C	0.25275	0.767623	0.345517
341	C	0.268476	0.802973	0.016901
342	C	0.251421	0.820396	0.027306
343	C	0.215897	0.80198	0.031227
344	C	0.198368	0.767299	0.353352
345	C	0.21717	0.751472	0.343599
346	N	0.199032	0.81813	0.04263
347	H	0.203694	0.726864	0.335482
348	H	0.209841	0.839365	0.057719
349	H	0.17522	0.808242	0.373806
350	H	0.230113	0.700372	0.011197
351	H	0.29364	0.817311	0.014057
352	C	0.271591	0.526834	0.340659
353	C	0.255692	0.546333	0.336502
354	C	0.27244	0.580454	0.324023
355	H	0.230691	0.535655	0.341408
356	C	0.253384	0.990697	0.34405
357	C	0.217745	0.971166	0.010893
358	C	0.199409	0.935822	0.012376
359	C	0.217336	0.918218	0.009975
360	C	0.252892	0.936151	0.343
361	C	0.269698	0.97141	0.344545
362	N	0.200584	0.884291	0.006936
363	H	0.294996	0.982889	0.344114
364	H	0.176953	0.870961	0.010669
365	H	0.211168	0.872034	0.33073
366	H	0.203837	0.982548	0.010446
367	C	0.272774	0.906481	0.056438
368	C	0.272406	0.87599	0.061451
369	C	0.268752	0.855854	0.023347
370	C	0.271191	0.870107	0.313361
371	C	0.272766	0.901206	0.308447
372	C	0.271165	0.918992	0.01326
373	H	0.266585	0.855734	0.284986
374	H	0.268569	0.865828	0.0932
375	H	0.269141	0.916863	0.08494
376	H	0.268892	0.907666	0.276786
377	C	0.258877	0.61397	0.040523
378	C	0.257761	0.643719	0.045581
379	C	0.254622	0.660729	0.00759
380	C	0.24851	0.644252	0.298534
381	C	0.24884	0.614065	0.293616
382	C	0.256186	0.59942	0.997363
383	H	0.248925	0.656638	0.2696
384	H	0.26518	0.655884	0.076003
385	H	0.266519	0.605834	0.067789
386	H	0.249107	0.605916	0.261469
387	C	0.271259	0.749971	0.675444
388	C	0.272561	0.696284	0.34093
389	C	0.255333	0.714376	0.341851
390	C	0.25275	0.767623	0.678849
391	C	0.268476	0.802973	0.350236
392	C	0.251421	0.820396	0.360639
393	C	0.215897	0.80198	0.364562
394	C	0.198368	0.767299	0.686684
395	C	0.21717	0.751472	0.676935
396	N	0.199032	0.81813	0.375964
397	H	0.203694	0.726864	0.668815
398	H	0.209841	0.839365	0.391052
399	H	0.17522	0.808242	0.707141
400	H	0.230113	0.700372	0.344531
401	H	0.29364	0.817311	0.34739
402	C	0.271591	0.526834	0.673994
403	C	0.255692	0.546333	0.669834
404	C	0.27244	0.580454	0.657358
405	H	0.230691	0.535655	0.674739
406	C	0.253384	0.990697	0.677385
407	C	0.217745	0.971166	0.344226
408	C	0.199409	0.935822	0.34571
409	C	0.217336	0.918218	0.343308
410	C	0.252892	0.936151	0.676332
411	C	0.269698	0.97141	0.67788
412	N	0.200584	0.884291	0.340269
413	H	0.294996	0.982889	0.677449
414	H	0.176953	0.870961	0.344003
415	H	0.211168	0.872034	0.664065
416	H	0.203837	0.982548	0.343779
417	C	0.272774	0.906481	0.389772
418	C	0.272406	0.87599	0.394785
419	C	0.268752	0.855854	0.356682
420	C	0.271191	0.870107	0.646694
421	C	0.272766	0.901206	0.641782
422	C	0.271165	0.918992	0.346594
423	H	0.266585	0.855734	0.61832
424	H	0.268569	0.865828	0.426533
425	H	0.269141	0.916863	0.418275
426	H	0.268892	0.907666	0.610118
427	C	0.258877	0.61397	0.373857
428	C	0.257761	0.643719	0.378915
429	C	0.254622	0.660729	0.340923
430	C	0.24851	0.644252	0.631867
431	C	0.24884	0.614065	0.626951
432	C	0.256186	0.59942	0.330697
433	H	0.248925	0.656638	0.602933
434	H	0.26518	0.655884	0.409338
435	H	0.266519	0.605834	0.401123
436	H	0.249107	0.605916	0.594803
437	C	0.271259	0.749971	0.008778
438	C	0.272561	0.696284	0.674265
439	C	0.255333	0.714376	0.675187
440	C	0.25275	0.767623	0.012183
441	C	0.268476	0.802973	0.683567
442	C	0.251421	0.820396	0.693974
443	C	0.215897	0.80198	0.697893
444	C	0.198368	0.767299	0.020018
445	C	0.21717	0.751472	0.010266
446	N	0.199032	0.81813	0.709299
447	H	0.203694	0.726864	0.00215
448	H	0.209841	0.839365	0.724387
449	H	0.17522	0.808242	0.040472
450	H	0.230113	0.700372	0.677863
451	H	0.29364	0.817311	0.680725
452	C	0.271591	0.526834	0.007329
453	C	0.255692	0.546333	0.003169
454	C	0.27244	0.580454	0.99069
455	H	0.230691	0.535655	0.008075
456	C	0.253384	0.990697	0.010717
457	C	0.217745	0.971166	0.677561
458	C	0.199409	0.935822	0.679045
459	C	0.217336	0.918218	0.676643
460	C	0.252892	0.936151	0.009666
461	C	0.269698	0.97141	0.011212
462	N	0.200584	0.884291	0.673605
463	H	0.294996	0.982889	0.010781
464	H	0.176953	0.870961	0.677338
465	H	0.211168	0.872034	0.997397
466	H	0.203837	0.982548	0.677114
467	C	0.272774	0.906481	0.723107
468	C	0.272406	0.87599	0.728117
469	C	0.268752	0.855854	0.690014
470	C	0.271191	0.870107	0.980029
471	C	0.272766	0.901206	0.975114
472	C	0.271165	0.918992	0.679926
473	H	0.266585	0.855734	0.951655
474	H	0.268569	0.865828	0.759869
475	H	0.269141	0.916863	0.751606
476	H	0.268892	0.907666	0.943454
477	C	0.258877	0.61397	0.707192
478	C	0.257761	0.643719	0.71225
479	C	0.254622	0.660729	0.674255
480	C	0.24851	0.644252	0.965202
481	C	0.24884	0.614065	0.960283
482	C	0.256186	0.59942	0.664031
483	H	0.248925	0.656638	0.936269
484	H	0.26518	0.655884	0.74267
485	H	0.266519	0.605834	0.734459
486	H	0.249107	0.605916	0.928135
487	H	0.378482	0.207616	0.053886
488	H	0.375465	0.172832	0.371946
489	C	0.30692	0.2664	0.341597
490	C	0.325596	0.249868	0.337729
491	C	0.308043	0.214309	0.003969
492	H	0.320663	0.291657	0.343372
493	N	0.325147	0.197524	0.000256
494	H	0.314824	0.17395	0.004328
495	H	0.348102	0.208081	0.324507
496	C	0.307639	0.096983	0.983383
497	C	0.32562	0.080602	0.996103
498	C	0.307163	0.046428	0.008315
499	N	0.323556	0.128662	0.966486
500	H	0.347357	0.142097	0.963721
501	H	0.311488	0.137252	0.283334
502	H	0.320904	0.035719	0.01712
503	C	0.374754	0.270132	0.052247
504	C	0.38107	0.269666	0.3045
505	C	0.361056	0.268035	0.00857
506	H	0.360337	0.266554	0.080291
507	H	0.371053	0.265359	0.27262
508	C	0.373182	0.109542	0.046635
509	C	0.360916	0.098662	0.002228
510	C	0.38293	0.115796	0.299241
511	H	0.374421	0.109636	0.266681
512	H	0.357633	0.099148	0.073829
513	H	0.378482	0.207616	0.387221
514	H	0.375465	0.172832	0.705278
515	C	0.30692	0.2664	0.674933
516	C	0.325596	0.249868	0.671064
517	C	0.308043	0.214309	0.337302
518	H	0.320663	0.291657	0.676704
519	N	0.325147	0.197524	0.333588
520	H	0.314824	0.17395	0.337659
521	H	0.348102	0.208081	0.657839
522	C	0.307639	0.096983	0.316716
523	C	0.32562	0.080602	0.329435
524	C	0.307163	0.046428	0.341648
525	N	0.323556	0.128662	0.29982
526	H	0.347357	0.142097	0.297052
527	H	0.311488	0.137252	0.616667
528	H	0.320904	0.035719	0.350452
529	C	0.374754	0.270132	0.385581
530	C	0.38107	0.269666	0.637832
531	C	0.361056	0.268035	0.341906
532	H	0.360337	0.266554	0.413624
533	H	0.371053	0.265359	0.605952
534	C	0.373182	0.109542	0.379968
535	C	0.360916	0.098662	0.335558
536	C	0.38293	0.115796	0.632575
537	H	0.374421	0.109636	0.600013
538	H	0.357633	0.099148	0.407163
539	H	0.378482	0.207616	0.720553
540	H	0.375465	0.172832	0.038612
541	C	0.30692	0.2664	0.008264
542	C	0.325596	0.249868	0.004396
543	C	0.308043	0.214309	0.670637
544	H	0.320663	0.291657	0.010037
545	N	0.325147	0.197524	0.666921
546	H	0.314824	0.17395	0.670993
547	H	0.348102	0.208081	0.991174
548	C	0.307639	0.096983	0.650051
549	C	0.32562	0.080602	0.662768
550	C	0.307163	0.046428	0.674983
551	N	0.323556	0.128662	0.633154
552	H	0.347357	0.142097	0.630386
553	H	0.311488	0.137252	0.950002
554	H	0.320904	0.035719	0.683788
555	C	0.374754	0.270132	0.718913
556	C	0.38107	0.269666	0.971167
557	C	0.361056	0.268035	0.675237
558	H	0.360337	0.266554	0.746959
559	H	0.371053	0.265359	0.939287
560	C	0.373182	0.109542	0.713303
561	C	0.360916	0.098662	0.668893
562	C	0.38293	0.115796	0.96591
563	H	0.374421	0.109636	0.933349
564	H	0.357633	0.099148	0.740495
565	H	0.378481	0.707617	0.053881
566	H	0.375463	0.672833	0.37194
567	C	0.306919	0.7664	0.341601
568	C	0.325593	0.749866	0.337727
569	C	0.308041	0.714309	0.003965
570	H	0.320663	0.791658	0.343376
571	N	0.325146	0.697523	0.000249
572	H	0.314821	0.673949	0.004321
573	H	0.348099	0.70808	0.324502
574	C	0.307639	0.596983	0.983383
575	C	0.325618	0.580601	0.996106
576	C	0.307161	0.546428	0.00832
577	N	0.323555	0.628662	0.966486
578	H	0.347357	0.642096	0.963718
579	H	0.311488	0.637251	0.28333
580	H	0.320901	0.53572	0.017127
581	C	0.374755	0.770132	0.052242
582	C	0.381067	0.769664	0.304495
583	C	0.361056	0.768036	0.008566
584	H	0.360338	0.766557	0.080287
585	H	0.37105	0.765357	0.272616
586	C	0.373181	0.609543	0.046636
587	C	0.360913	0.598661	0.002228
588	C	0.382929	0.615795	0.299243
589	H	0.37442	0.609633	0.266683
590	H	0.357632	0.599152	0.07383
591	H	0.378481	0.707617	0.387214
592	H	0.375463	0.672833	0.705275
593	C	0.306919	0.7664	0.674936
594	C	0.325593	0.749866	0.671061
595	C	0.308041	0.714309	0.337298
596	H	0.320663	0.791658	0.676711
597	N	0.325146	0.697523	0.333582
598	H	0.314821	0.673949	0.337655
599	H	0.348099	0.70808	0.657836
600	C	0.307639	0.596983	0.316715
601	C	0.325618	0.580601	0.329437
602	C	0.307161	0.546428	0.341655
603	N	0.323555	0.628662	0.299818
604	H	0.347357	0.642096	0.29705
605	H	0.311488	0.637251	0.616663
606	H	0.320901	0.53572	0.350459
607	C	0.374755	0.770132	0.385575
608	C	0.381067	0.769664	0.637829
609	C	0.361056	0.768036	0.341899
610	H	0.360338	0.766557	0.41362
611	H	0.37105	0.765357	0.605948
612	C	0.373181	0.609543	0.379972
613	C	0.360913	0.598661	0.33556
614	C	0.382929	0.615795	0.632578
615	H	0.37442	0.609633	0.600017
616	H	0.357632	0.599152	0.407163
617	H	0.378481	0.707617	0.720549
618	H	0.375463	0.672833	0.038608
619	C	0.306919	0.7664	0.008267
620	C	0.325593	0.749866	0.004396
621	C	0.308041	0.714309	0.67063
622	H	0.320663	0.791658	0.010042
623	N	0.325146	0.697523	0.666914
624	H	0.314821	0.673949	0.670989
625	H	0.348099	0.70808	0.991171
626	C	0.307639	0.596983	0.650051
627	C	0.325618	0.580601	0.662771
628	C	0.307161	0.546428	0.674987
629	N	0.323555	0.628662	0.63315
630	H	0.347357	0.642096	0.630383
631	H	0.311488	0.637251	0.949998
632	H	0.320901	0.53572	0.683794
633	C	0.374755	0.770132	0.71891
634	C	0.381067	0.769664	0.971164
635	C	0.361056	0.768036	0.675234
636	H	0.360338	0.766557	0.746955
637	H	0.37105	0.765357	0.939284
638	C	0.373181	0.609543	0.713303
639	C	0.360913	0.598661	0.668896
640	C	0.382929	0.615795	0.96591
641	H	0.37442	0.609633	0.933352
642	H	0.357632	0.599152	0.740499
643	C	0.494033	0.249408	0.34529
644	C	0.474459	0.213851	0.34491
645	C	0.439841	0.19546	0.354697
646	C	0.422724	0.213323	0.030809
647	C	0.440063	0.248829	0.026078
648	C	0.474614	0.265451	0.015715
649	H	0.48544	0.200125	0.337349
650	N	0.389444	0.196633	0.040859
651	H	0.485666	0.290552	0.011518
652	C	0.404956	0.270025	0.058402
653	C	0.422069	0.266283	0.021118
654	C	0.410598	0.268227	0.310647
655	H	0.420721	0.263517	0.282734
656	H	0.410899	0.2664	0.090498
657	C	0.403498	0.13951	0.053904
658	C	0.412846	0.146159	0.306464
659	C	0.42226	0.160009	0.017094
660	H	0.408285	0.149213	0.085984
661	H	0.424527	0.160586	0.278721
662	C	0.494033	0.249408	0.678625
663	C	0.474459	0.213851	0.678246
664	C	0.439841	0.19546	0.688032
665	C	0.422724	0.213323	0.364142
666	C	0.440063	0.248829	0.359413
667	C	0.474614	0.265451	0.34905
668	H	0.48544	0.200125	0.670685
669	N	0.389444	0.196633	0.374192
670	H	0.485666	0.290552	0.344853
671	C	0.404956	0.270025	0.391737
672	C	0.422069	0.266283	0.354453
673	C	0.410598	0.268227	0.64398
674	H	0.420721	0.263517	0.616067
675	H	0.410899	0.2664	0.42383
676	C	0.403498	0.13951	0.387238
677	C	0.412846	0.146159	0.639797
678	C	0.42226	0.160009	0.350429
679	H	0.408285	0.149213	0.419318
680	H	0.424527	0.160586	0.612056
681	C	0.494033	0.249408	0.011956
682	C	0.474459	0.213851	0.011578
683	C	0.439841	0.19546	0.021365
684	C	0.422724	0.213323	0.697477
685	C	0.440063	0.248829	0.692744
686	C	0.474614	0.265451	0.682382
687	H	0.48544	0.200125	0.004016
688	N	0.389444	0.196633	0.707528
689	H	0.485666	0.290552	0.678185
690	C	0.404956	0.270025	0.725068
691	C	0.422069	0.266283	0.687785
692	C	0.410598	0.268227	0.977316
693	H	0.420721	0.263517	0.949402
694	H	0.410899	0.2664	0.757165
695	C	0.403498	0.13951	0.720573
696	C	0.412846	0.146159	0.973132
697	C	0.42226	0.160009	0.68376
698	H	0.408285	0.149213	0.752653
699	H	0.424527	0.160586	0.945388
700	C	0.494033	0.749408	0.345286
701	C	0.474458	0.713851	0.344907
702	C	0.43984	0.695459	0.354697
703	C	0.422724	0.713323	0.030805
704	C	0.440063	0.748831	0.026073
705	C	0.474615	0.765452	0.015711
706	H	0.48544	0.700125	0.337347
707	N	0.389443	0.696635	0.040854
708	H	0.485666	0.790552	0.011513
709	C	0.404955	0.770025	0.058397
710	C	0.422069	0.766283	0.021113
711	C	0.410597	0.768225	0.310641
712	H	0.420716	0.763512	0.282729
713	H	0.410899	0.766403	0.090492
714	C	0.403496	0.639512	0.053904
715	C	0.412845	0.646157	0.306464
716	C	0.422258	0.660009	0.017094
717	H	0.408284	0.649216	0.085984
718	H	0.424527	0.660584	0.278721
719	C	0.494033	0.749408	0.678618
720	C	0.474458	0.713851	0.678242
721	C	0.43984	0.695459	0.688029
722	C	0.422724	0.713323	0.364138
723	C	0.440063	0.748831	0.359406
724	C	0.474615	0.765452	0.349043
725	H	0.48544	0.700125	0.670681
726	N	0.389443	0.696635	0.374189
727	H	0.485666	0.790552	0.344846
728	C	0.404955	0.770025	0.39173
729	C	0.422069	0.766283	0.354446
730	C	0.410597	0.768225	0.643974
731	H	0.420716	0.763512	0.616064
732	H	0.410899	0.766403	0.423827
733	C	0.403496	0.639512	0.387238
734	C	0.412845	0.646157	0.639797
735	C	0.422258	0.660009	0.350429
736	H	0.408284	0.649216	0.419318
737	H	0.424527	0.660584	0.612056
738	C	0.494033	0.749408	0.011952
739	C	0.474458	0.713851	0.011575
740	C	0.43984	0.695459	0.021362
741	C	0.422724	0.713323	0.697473
742	C	0.440063	0.748831	0.692741
743	C	0.474615	0.765452	0.682378
744	H	0.48544	0.700125	0.004016
745	N	0.389443	0.696635	0.707521
746	H	0.485666	0.790552	0.678181
747	C	0.404955	0.770025	0.725065
748	C	0.422069	0.766283	0.687782
749	C	0.410597	0.768225	0.977309
750	H	0.420716	0.763512	0.949395
751	H	0.410899	0.766403	0.757159
752	C	0.403496	0.639512	0.720573
753	C	0.412845	0.646157	0.973132
754	C	0.422258	0.660009	0.68376
755	H	0.408284	0.649216	0.752653
756	H	0.424527	0.660584	0.945388
757	C	0.994034	0.249408	0.34529
758	C	0.97446	0.213851	0.34491
759	C	0.939842	0.19546	0.354697
760	C	0.922725	0.213323	0.030809
761	C	0.940062	0.248829	0.026078
762	C	0.974615	0.265451	0.015715
763	H	0.985441	0.200125	0.337349
764	N	0.889443	0.196633	0.040859
765	C	0.529976	0.267308	0.338982
766	C	0.549504	0.251262	0.005449
767	C	0.583819	0.267201	0.993776
768	C	0.600469	0.30192	0.982746
769	C	0.583783	0.320445	0.323656
770	C	0.549547	0.302771	0.335712
771	N	0.632688	0.31816	0.967722
772	H	0.538863	0.316992	0.341523
773	H	0.646211	0.30788	0.965236
774	H	0.641955	0.339419	0.286029
775	H	0.878481	0.207616	0.053886
776	H	0.875463	0.172832	0.371946
777	H	0.985665	0.290552	0.011518
778	H	0.538674	0.226697	0.013808
779	C	0.771259	0.24997	0.342106
780	C	0.806919	0.2664	0.341597
781	C	0.825596	0.249868	0.337729
782	C	0.808043	0.214309	0.003969
783	C	0.772563	0.196283	0.0076
784	C	0.755334	0.214377	0.008515
785	H	0.820662	0.291657	0.343372
786	N	0.825149	0.197524	0.000256
787	C	0.75275	0.267622	0.345507
788	C	0.768476	0.302973	0.01689
789	C	0.751419	0.320396	0.027292
790	C	0.715896	0.30198	0.031211
791	C	0.698368	0.267298	0.353335
792	C	0.717171	0.251472	0.343586
793	N	0.699032	0.31813	0.042616
794	H	0.703693	0.226862	0.335471
795	H	0.709839	0.339362	0.05771
796	H	0.675218	0.308239	0.373793
797	H	0.814823	0.17395	0.004328
798	H	0.848101	0.208081	0.324507
799	H	0.730114	0.200372	0.011192
800	H	0.79364	0.317311	0.014049
801	C	0.771593	0.026832	0.340656
802	C	0.755693	0.046332	0.3365
803	C	0.772442	0.080454	0.324024
804	C	0.80764	0.096983	0.983383
805	C	0.825621	0.080602	0.996103
806	C	0.807162	0.046428	0.008315
807	H	0.730692	0.035653	0.341408
808	N	0.823555	0.128662	0.966486
809	C	0.753382	0.490699	0.344057
810	C	0.717741	0.471165	0.010906
811	C	0.699405	0.435824	0.012392
812	C	0.717334	0.41822	0.009986
813	C	0.752888	0.43615	0.343003
814	C	0.769696	0.471409	0.344548
815	N	0.70058	0.384293	0.00695
816	H	0.794993	0.482891	0.344111
817	H	0.676948	0.370963	0.010684
818	H	0.71116	0.372034	0.330733
819	H	0.847358	0.142097	0.963721
820	H	0.811487	0.137252	0.283334
821	H	0.820903	0.035719	0.01712
822	H	0.703835	0.48255	0.010463
823	C	0.641701	0.246423	0.051256
824	C	0.611854	0.24698	0.043752
825	C	0.601847	0.249863	0.999399
826	C	0.619678	0.246069	0.296345
827	C	0.649964	0.246368	0.30386
828	C	0.662966	0.249363	0.014821
829	H	0.614319	0.249589	0.263868
830	H	0.600945	0.25129	0.071105
831	H	0.650786	0.250346	0.083654
832	H	0.664932	0.250172	0.276364
833	C	0.772772	0.406478	0.056435
834	C	0.772408	0.37599	0.061442
835	C	0.76875	0.355854	0.023336
836	C	0.771186	0.370109	0.313352
837	C	0.772759	0.401208	0.308443
838	C	0.771161	0.418992	0.013259
839	H	0.766578	0.355737	0.284975
840	H	0.768571	0.365825	0.09319
841	H	0.769141	0.41686	0.084939
842	H	0.768883	0.407669	0.276784
843	C	0.616187	0.366975	0.041579
844	C	0.64585	0.397745	0.048022
845	C	0.663822	0.418242	0.01079
846	C	0.648407	0.408478	0.301019
847	C	0.618192	0.378156	0.294785
848	C	0.602601	0.355619	0.9978
849	H	0.66145	0.420859	0.272658
850	H	0.657171	0.402064	0.079042
851	H	0.607251	0.350884	0.068474
852	H	0.610769	0.370109	0.262317
853	C	0.874756	0.270132	0.052247
854	C	0.904954	0.270025	0.058402
855	C	0.922068	0.266283	0.021118
856	C	0.9106	0.268227	0.310647
857	C	0.881069	0.269666	0.3045
858	C	0.861055	0.268035	0.00857
859	H	0.92072	0.263517	0.282734
860	H	0.910898	0.2664	0.090498
861	H	0.860336	0.266554	0.080291
862	H	0.871052	0.265359	0.27262
863	C	0.758881	0.11397	0.040526
864	C	0.757766	0.14372	0.045585
865	C	0.754624	0.160728	0.007594
866	C	0.74851	0.144251	0.298538
867	C	0.748838	0.114062	0.293621
868	C	0.756187	0.099419	0.997367
869	H	0.748921	0.156636	0.269605
870	H	0.765186	0.155884	0.076005
871	H	0.766525	0.105836	0.067792
872	H	0.749104	0.105914	0.261473
873	C	0.903497	0.13951	0.053904
874	C	0.873183	0.109542	0.046635
875	C	0.860915	0.098662	0.002228
876	C	0.882929	0.115796	0.299241
877	C	0.912847	0.146159	0.306464
878	C	0.922259	0.160009	0.017094
879	H	0.87442	0.109636	0.266681
880	H	0.857632	0.099148	0.073829
881	H	0.908286	0.149213	0.085984
882	H	0.924528	0.160586	0.278721
883	C	0.994034	0.249408	0.678625
884	C	0.97446	0.213851	0.678246
885	C	0.939842	0.19546	0.688032
886	C	0.922725	0.213323	0.364142
887	C	0.940062	0.248829	0.359413
888	C	0.974615	0.265451	0.34905
889	H	0.985441	0.200125	0.670685
890	N	0.889443	0.196633	0.374192
891	C	0.529976	0.267308	0.672317
892	C	0.549504	0.251262	0.338782
893	C	0.583819	0.267201	0.327108
894	C	0.600469	0.30192	0.316078
895	C	0.583783	0.320445	0.656989
896	C	0.549547	0.302771	0.669045
897	N	0.632688	0.31816	0.301054
898	H	0.538863	0.316992	0.674855
899	H	0.646211	0.30788	0.298566
900	H	0.641955	0.339419	0.619363
901	H	0.878481	0.207616	0.387221
902	H	0.875463	0.172832	0.705278
903	H	0.985665	0.290552	0.344853
904	H	0.538674	0.226697	0.347143
905	C	0.771259	0.24997	0.675441
906	C	0.806919	0.2664	0.674933
907	C	0.825596	0.249868	0.671064
908	C	0.808043	0.214309	0.337302
909	C	0.772563	0.196283	0.340933
910	C	0.755334	0.214377	0.341848
911	H	0.820662	0.291657	0.676704
912	N	0.825149	0.197524	0.333588
913	C	0.75275	0.267622	0.678842
914	C	0.768476	0.302973	0.350225
915	C	0.751419	0.320396	0.360625
916	C	0.715896	0.30198	0.364545
917	C	0.698368	0.267298	0.68667
918	C	0.717171	0.251472	0.676921
919	N	0.699032	0.31813	0.375951
920	H	0.703693	0.226862	0.668804
921	H	0.709839	0.339362	0.391042
922	H	0.675218	0.308239	0.707128
923	H	0.814823	0.17395	0.337659
924	H	0.848101	0.208081	0.657839
925	H	0.730114	0.200372	0.344524
926	H	0.79364	0.317311	0.347383
927	C	0.771593	0.026832	0.673991
928	C	0.755693	0.046332	0.669834
929	C	0.772442	0.080454	0.657358
930	C	0.80764	0.096983	0.316716
931	C	0.825621	0.080602	0.329435
932	C	0.807162	0.046428	0.341648
933	H	0.730692	0.035653	0.674739
934	N	0.823555	0.128662	0.29982
935	C	0.753382	0.490699	0.677392
936	C	0.717741	0.471165	0.34424
937	C	0.699405	0.435824	0.345727
938	C	0.717334	0.41822	0.343318
939	C	0.752888	0.43615	0.676338
940	C	0.769696	0.471409	0.677883
941	N	0.70058	0.384293	0.34028
942	H	0.794993	0.482891	0.677446
943	H	0.676948	0.370963	0.344019
944	H	0.71116	0.372034	0.664065
945	H	0.847358	0.142097	0.297052
946	H	0.811487	0.137252	0.616667
947	H	0.820903	0.035719	0.350452
948	H	0.703835	0.48255	0.343796
949	C	0.641701	0.246423	0.384589
950	C	0.611854	0.24698	0.377085
951	C	0.601847	0.249863	0.332732
952	C	0.619678	0.246069	0.629678
953	C	0.649964	0.246368	0.637195
954	C	0.662966	0.249363	0.348156
955	H	0.614319	0.249589	0.597202
956	H	0.600945	0.25129	0.40444
957	H	0.650786	0.250346	0.416987
958	H	0.664932	0.250172	0.609698
959	C	0.772772	0.406478	0.389768
960	C	0.772408	0.37599	0.394775
961	C	0.76875	0.355854	0.356669
962	C	0.771186	0.370109	0.646684
963	C	0.772759	0.401208	0.641775
964	C	0.771161	0.418992	0.346594
965	H	0.766578	0.355737	0.61831
966	H	0.768571	0.365825	0.426523
967	H	0.769141	0.41686	0.418271
968	H	0.768883	0.407669	0.610118
969	C	0.616187	0.366975	0.374914
970	C	0.64585	0.397745	0.381357
971	C	0.663822	0.418242	0.344124
972	C	0.648407	0.408478	0.634353
973	C	0.618192	0.378156	0.62812
974	C	0.602601	0.355619	0.331132
975	H	0.66145	0.420859	0.605992
976	H	0.657171	0.402064	0.412377
977	H	0.607251	0.350884	0.401808
978	H	0.610769	0.370109	0.59565
979	C	0.874756	0.270132	0.385581
980	C	0.904954	0.270025	0.391737
981	C	0.922068	0.266283	0.354453
982	C	0.9106	0.268227	0.64398
983	C	0.881069	0.269666	0.637832
984	C	0.861055	0.268035	0.341906
985	H	0.92072	0.263517	0.616067
986	H	0.910898	0.2664	0.42383
987	H	0.860336	0.266554	0.413624
988	H	0.871052	0.265359	0.605952
989	C	0.758881	0.11397	0.37386
990	C	0.757766	0.14372	0.378918
991	C	0.754624	0.160728	0.340927
992	C	0.74851	0.144251	0.631873
993	C	0.748838	0.114062	0.626955
994	C	0.756187	0.099419	0.3307
995	H	0.748921	0.156636	0.60294
996	H	0.765186	0.155884	0.409338
997	H	0.766525	0.105836	0.401127
998	H	0.749104	0.105914	0.594807
999	C	0.903497	0.13951	0.387238
1000	C	0.873183	0.109542	0.379968
1001	C	0.860915	0.098662	0.335558
1002	C	0.882929	0.115796	0.632575
1003	C	0.912847	0.146159	0.639797
1004	C	0.922259	0.160009	0.350429
1005	H	0.87442	0.109636	0.600013
1006	H	0.857632	0.099148	0.407163
1007	H	0.908286	0.149213	0.419318
1008	H	0.924528	0.160586	0.612056
1009	C	0.994034	0.249408	0.011956
1010	C	0.97446	0.213851	0.011578
1011	C	0.939842	0.19546	0.021365
1012	C	0.922725	0.213323	0.697477
1013	C	0.940062	0.248829	0.692744
1014	C	0.974615	0.265451	0.682382
1015	H	0.985441	0.200125	0.004016
1016	N	0.889443	0.196633	0.707528
1017	C	0.529976	0.267308	0.005652
1018	C	0.549504	0.251262	0.672117
1019	C	0.583819	0.267201	0.660441
1020	C	0.600469	0.30192	0.649411
1021	C	0.583783	0.320445	0.990324
1022	C	0.549547	0.302771	0.00238
1023	N	0.632688	0.31816	0.634387
1024	H	0.538863	0.316992	0.008187
1025	H	0.646211	0.30788	0.6319
1026	H	0.641955	0.339419	0.952698
1027	H	0.878481	0.207616	0.720553
1028	H	0.875463	0.172832	0.038612
1029	H	0.985665	0.290552	0.678185
1030	H	0.538674	0.226697	0.680475
1031	C	0.771259	0.24997	0.008772
1032	C	0.806919	0.2664	0.008264
1033	C	0.825596	0.249868	0.004396
1034	C	0.808043	0.214309	0.670637
1035	C	0.772563	0.196283	0.674265
1036	C	0.755334	0.214377	0.675183
1037	H	0.820662	0.291657	0.010037
1038	N	0.825149	0.197524	0.666921
1039	C	0.75275	0.267622	0.012173
1040	C	0.768476	0.302973	0.683557
1041	C	0.751419	0.320396	0.69396
1042	C	0.715896	0.30198	0.69788
1043	C	0.698368	0.267298	0.020003
1044	C	0.717171	0.251472	0.010254
1045	N	0.699032	0.31813	0.709282
1046	H	0.703693	0.226862	0.00214
1047	H	0.709839	0.339362	0.724377
1048	H	0.675218	0.308239	0.04046
1049	H	0.814823	0.17395	0.670993
1050	H	0.848101	0.208081	0.991174
1051	H	0.730114	0.200372	0.677859
1052	H	0.79364	0.317311	0.680715
1053	C	0.771593	0.026832	0.007323
1054	C	0.755693	0.046332	0.003169
1055	C	0.772442	0.080454	0.990693
1056	C	0.80764	0.096983	0.650051
1057	C	0.825621	0.080602	0.662768
1058	C	0.807162	0.046428	0.674983
1059	H	0.730692	0.035653	0.008075
1060	N	0.823555	0.128662	0.633154
1061	C	0.753382	0.490699	0.010724
1062	C	0.717741	0.471165	0.677575
1063	C	0.699405	0.435824	0.679059
1064	C	0.717334	0.41822	0.676653
1065	C	0.752888	0.43615	0.009671
1066	C	0.769696	0.471409	0.011215
1067	N	0.70058	0.384293	0.673615
1068	H	0.794993	0.482891	0.010778
1069	H	0.676948	0.370963	0.677351
1070	H	0.71116	0.372034	0.9974
1071	H	0.847358	0.142097	0.630386
1072	H	0.811487	0.137252	0.950002
1073	H	0.820903	0.035719	0.683788
1074	H	0.703835	0.48255	0.677131
1075	C	0.641701	0.246423	0.717924
1076	C	0.611854	0.24698	0.710421
1077	C	0.601847	0.249863	0.666067
1078	C	0.619678	0.246069	0.963013
1079	C	0.649964	0.246368	0.970527
1080	C	0.662966	0.249363	0.681487
1081	H	0.614319	0.249589	0.930537
1082	H	0.600945	0.25129	0.737772
1083	H	0.650786	0.250346	0.750322
1084	H	0.664932	0.250172	0.94303
1085	C	0.772772	0.406478	0.723104
1086	C	0.772408	0.37599	0.72811
1087	C	0.76875	0.355854	0.690004
1088	C	0.771186	0.370109	0.980019
1089	C	0.772759	0.401208	0.97511
1090	C	0.771161	0.418992	0.679926
1091	H	0.766578	0.355737	0.951641
1092	H	0.768571	0.365825	0.759858
1093	H	0.769141	0.41686	0.751606
1094	H	0.768883	0.407669	0.94345
1095	C	0.616187	0.366975	0.708246
1096	C	0.64585	0.397745	0.714689
1097	C	0.663822	0.418242	0.677456
1098	C	0.648407	0.408478	0.967685
1099	C	0.618192	0.378156	0.961452
1100	C	0.602601	0.355619	0.664465
1101	H	0.66145	0.420859	0.939324
1102	H	0.657171	0.402064	0.745709
1103	H	0.607251	0.350884	0.735143
1104	H	0.610769	0.370109	0.928985
1105	C	0.874756	0.270132	0.718913
1106	C	0.904954	0.270025	0.725068
1107	C	0.922068	0.266283	0.687785
1108	C	0.9106	0.268227	0.977316
1109	C	0.881069	0.269666	0.971167
1110	C	0.861055	0.268035	0.675237
1111	H	0.92072	0.263517	0.949402
1112	H	0.910898	0.2664	0.757165
1113	H	0.860336	0.266554	0.746959
1114	H	0.871052	0.265359	0.939287
1115	C	0.758881	0.11397	0.707196
1116	C	0.757766	0.14372	0.712253
1117	C	0.754624	0.160728	0.674262
1118	C	0.74851	0.144251	0.965205
1119	C	0.748838	0.114062	0.96029
1120	C	0.756187	0.099419	0.664035
1121	H	0.748921	0.156636	0.936272
1122	H	0.765186	0.155884	0.742673
1123	H	0.766525	0.105836	0.734459
1124	H	0.749104	0.105914	0.928142
1125	C	0.903497	0.13951	0.720573
1126	C	0.873183	0.109542	0.713303
1127	C	0.860915	0.098662	0.668893
1128	C	0.882929	0.115796	0.96591
1129	C	0.912847	0.146159	0.973132
1130	C	0.922259	0.160009	0.68376
1131	H	0.87442	0.109636	0.933349
1132	H	0.857632	0.099148	0.740495
1133	H	0.908286	0.149213	0.752653
1134	H	0.924528	0.160586	0.945388
1135	C	0.994032	0.749408	0.345286
1136	C	0.974458	0.713851	0.344907
1137	C	0.939839	0.695459	0.354697
1138	C	0.922723	0.713323	0.030805
1139	C	0.940063	0.748831	0.026073
1140	C	0.974615	0.765452	0.015711
1141	H	0.985439	0.700125	0.337347
1142	N	0.889441	0.696635	0.040854
1143	C	0.529976	0.767309	0.338979
1144	C	0.549503	0.75126	0.005453
1145	C	0.583818	0.767199	0.993779
1146	C	0.600467	0.801915	0.982742
1147	C	0.583782	0.820441	0.323647
1148	C	0.549546	0.802769	0.335702
1149	N	0.632688	0.818155	0.967719
1150	H	0.538864	0.816993	0.341506
1151	H	0.646211	0.807876	0.965239
1152	H	0.641953	0.839412	0.286023
1153	H	0.878481	0.707617	0.053881
1154	H	0.875462	0.672833	0.37194
1155	H	0.985665	0.790552	0.011513
1156	H	0.538674	0.726697	0.013814
1157	C	0.771259	0.749971	0.342112
1158	C	0.806919	0.7664	0.341601
1159	C	0.825593	0.749866	0.337727
1160	C	0.808041	0.714309	0.003965
1161	C	0.772562	0.696284	0.007597
1162	C	0.755333	0.714376	0.008518
1163	H	0.820663	0.791658	0.343376
1164	N	0.825146	0.697523	0.000249
1165	C	0.75275	0.767623	0.345517
1166	C	0.768476	0.802973	0.016901
1167	C	0.751422	0.820396	0.027306
1168	C	0.715896	0.80198	0.031227
1169	C	0.698368	0.767299	0.353352
1170	C	0.717169	0.751472	0.343599
1171	N	0.699032	0.81813	0.04263
1172	H	0.703694	0.726864	0.335482
1173	H	0.709841	0.839365	0.057719
1174	H	0.675219	0.808242	0.373806
1175	H	0.814821	0.673949	0.004321
1176	H	0.8481	0.70808	0.324502
1177	H	0.730112	0.700372	0.011197
1178	H	0.79364	0.817311	0.014057
1179	C	0.771591	0.526834	0.340659
1180	C	0.755692	0.546333	0.336502
1181	C	0.77244	0.580454	0.324023
1182	C	0.807638	0.596983	0.983383
1183	C	0.825618	0.580601	0.996106
1184	C	0.80716	0.546428	0.00832
1185	H	0.730691	0.535655	0.341408
1186	N	0.823555	0.628662	0.966486
1187	C	0.753383	0.990697	0.34405
1188	C	0.717744	0.971166	0.010893
1189	C	0.699408	0.935822	0.012376
1190	C	0.717335	0.918218	0.009975
1191	C	0.752891	0.936151	0.343
1192	C	0.769699	0.97141	0.344545
1193	N	0.700583	0.884291	0.006936
1194	H	0.794995	0.982889	0.344114
1195	H	0.676952	0.870961	0.010669
1196	H	0.711167	0.872034	0.33073
1197	H	0.847357	0.642096	0.963718
1198	H	0.811489	0.637251	0.28333
1199	H	0.820901	0.53572	0.017127
1200	H	0.703837	0.982548	0.010446
1201	C	0.6417	0.746425	0.051269
1202	C	0.611852	0.746981	0.043762
1203	C	0.601846	0.749861	0.999409
1204	C	0.619678	0.746064	0.296356
1205	C	0.649965	0.746366	0.303874
1206	C	0.662968	0.749366	0.014836
1207	H	0.614318	0.749582	0.263877
1208	H	0.600945	0.751293	0.071113
1209	H	0.650785	0.750352	0.083667
1210	H	0.66493	0.750165	0.276378
1211	C	0.772774	0.906481	0.056438
1212	C	0.772406	0.87599	0.061451
1213	C	0.768752	0.855854	0.023347
1214	C	0.771191	0.870107	0.313361
1215	C	0.772764	0.901206	0.308447
1216	C	0.771164	0.918992	0.01326
1217	H	0.766583	0.855734	0.284986
1218	H	0.768568	0.865828	0.0932
1219	H	0.76914	0.916863	0.08494
1220	H	0.76889	0.907666	0.276786
1221	C	0.616191	0.866975	0.041566
1222	C	0.645852	0.897743	0.048007
1223	C	0.663824	0.91824	0.010774
1224	C	0.648408	0.908473	0.301003
1225	C	0.618193	0.878151	0.294771
1226	C	0.602601	0.855617	0.997787
1227	H	0.661451	0.920854	0.272641
1228	H	0.657174	0.902065	0.079027
1229	H	0.607253	0.850885	0.068462
1230	H	0.610769	0.870105	0.262304
1231	C	0.874754	0.770132	0.052242
1232	C	0.904955	0.770025	0.058397
1233	C	0.922068	0.766283	0.021113
1234	C	0.910596	0.768225	0.310641
1235	C	0.881066	0.769664	0.304495
1236	C	0.861056	0.768036	0.008566
1237	H	0.920715	0.763512	0.282729
1238	H	0.910899	0.766403	0.090492
1239	H	0.860338	0.766557	0.080287
1240	H	0.871049	0.765357	0.272616
1241	C	0.758876	0.61397	0.040523
1242	C	0.757761	0.643719	0.045581
1243	C	0.754622	0.660729	0.00759
1244	C	0.74851	0.644252	0.298534
1245	C	0.748839	0.614065	0.293616
1246	C	0.756185	0.59942	0.997363
1247	H	0.748925	0.656638	0.2696
1248	H	0.76518	0.655884	0.076003
1249	H	0.766518	0.605834	0.067789
1250	H	0.749107	0.605916	0.261469
1251	C	0.903495	0.639512	0.053904
1252	C	0.873181	0.609543	0.046636
1253	C	0.860912	0.598661	0.002228
1254	C	0.882929	0.615795	0.299243
1255	C	0.912844	0.646157	0.306464
1256	C	0.922256	0.660009	0.017094
1257	H	0.874421	0.609633	0.266683
1258	H	0.857632	0.599152	0.07383
1259	H	0.908283	0.649216	0.085984
1260	H	0.924528	0.660584	0.278721
1261	C	0.994032	0.749408	0.678618
1262	C	0.974458	0.713851	0.678242
1263	C	0.939839	0.695459	0.688029
1264	C	0.922723	0.713323	0.364138
1265	C	0.940063	0.748831	0.359406
1266	C	0.974615	0.765452	0.349043
1267	H	0.985439	0.700125	0.670681
1268	N	0.889441	0.696635	0.374189
1269	C	0.529976	0.767309	0.672314
1270	C	0.549503	0.75126	0.338786
1271	C	0.583818	0.767199	0.327111
1272	C	0.600467	0.801915	0.316076
1273	C	0.583782	0.820441	0.656982
1274	C	0.549546	0.802769	0.669035
1275	N	0.632688	0.818155	0.301052
1276	H	0.538864	0.816993	0.674841
1277	H	0.646211	0.807876	0.298571
1278	H	0.641953	0.839412	0.619356
1279	H	0.878481	0.707617	0.387214
1280	H	0.875462	0.672833	0.705275
1281	H	0.985665	0.790552	0.344846
1282	H	0.538674	0.726697	0.347146
1283	C	0.771259	0.749971	0.675444
1284	C	0.806919	0.7664	0.674936
1285	C	0.825593	0.749866	0.671061
1286	C	0.808041	0.714309	0.337298
1287	C	0.772562	0.696284	0.34093
1288	C	0.755333	0.714376	0.341851
1289	H	0.820663	0.791658	0.676711
1290	N	0.825146	0.697523	0.333582
1291	C	0.75275	0.767623	0.678849
1292	C	0.768476	0.802973	0.350236
1293	C	0.751422	0.820396	0.360639
1294	C	0.715896	0.80198	0.364562
1295	C	0.698368	0.767299	0.686684
1296	C	0.717169	0.751472	0.676935
1297	N	0.699032	0.81813	0.375964
1298	H	0.703694	0.726864	0.668815
1299	H	0.709841	0.839365	0.391052
1300	H	0.675219	0.808242	0.707141
1301	H	0.814821	0.673949	0.337655
1302	H	0.8481	0.70808	0.657836
1303	H	0.730112	0.700372	0.344531
1304	H	0.79364	0.817311	0.34739
1305	C	0.771591	0.526834	0.673994
1306	C	0.755692	0.546333	0.669834
1307	C	0.77244	0.580454	0.657358
1308	C	0.807638	0.596983	0.316715
1309	C	0.825618	0.580601	0.329437
1310	C	0.80716	0.546428	0.341655
1311	H	0.730691	0.535655	0.674739
1312	N	0.823555	0.628662	0.299818
1313	C	0.753383	0.990697	0.677385
1314	C	0.717744	0.971166	0.344226
1315	C	0.699408	0.935822	0.34571
1316	C	0.717335	0.918218	0.343308
1317	C	0.752891	0.936151	0.676332
1318	C	0.769699	0.97141	0.67788
1319	N	0.700583	0.884291	0.340269
1320	H	0.794995	0.982889	0.677449
1321	H	0.676952	0.870961	0.344003
1322	H	0.711167	0.872034	0.664065
1323	H	0.847357	0.642096	0.29705
1324	H	0.811489	0.637251	0.616663
1325	H	0.820901	0.53572	0.350459
1326	H	0.703837	0.982548	0.343779
1327	C	0.6417	0.746425	0.384602
1328	C	0.611852	0.746981	0.377096
1329	C	0.601846	0.749861	0.332741
1330	C	0.619678	0.746064	0.629688
1331	C	0.649965	0.746366	0.637209
1332	C	0.662968	0.749366	0.348169
1333	H	0.614318	0.749582	0.597212
1334	H	0.600945	0.751293	0.404447
1335	H	0.650785	0.750352	0.417001
1336	H	0.66493	0.750165	0.609712
1337	C	0.772774	0.906481	0.389772
1338	C	0.772406	0.87599	0.394785
1339	C	0.768752	0.855854	0.356682
1340	C	0.771191	0.870107	0.646694
1341	C	0.772764	0.901206	0.641782
1342	C	0.771164	0.918992	0.346594
1343	H	0.766583	0.855734	0.61832
1344	H	0.768568	0.865828	0.426533
1345	H	0.76914	0.916863	0.418275
1346	H	0.76889	0.907666	0.610118
1347	C	0.616191	0.866975	0.3749
1348	C	0.645852	0.897743	0.38134
1349	C	0.663824	0.91824	0.344108
1350	C	0.648408	0.908473	0.634336
1351	C	0.618193	0.878151	0.628106
1352	C	0.602601	0.855617	0.33112
1353	H	0.661451	0.920854	0.605976
1354	H	0.657174	0.902065	0.41236
1355	H	0.607253	0.850885	0.401798
1356	H	0.610769	0.870105	0.595637
1357	C	0.874754	0.770132	0.385575
1358	C	0.904955	0.770025	0.39173
1359	C	0.922068	0.766283	0.354446
1360	C	0.910596	0.768225	0.643974
1361	C	0.881066	0.769664	0.637829
1362	C	0.861056	0.768036	0.341899
1363	H	0.920715	0.763512	0.616064
1364	H	0.910899	0.766403	0.423827
1365	H	0.860338	0.766557	0.41362
1366	H	0.871049	0.765357	0.605948
1367	C	0.758876	0.61397	0.373857
1368	C	0.757761	0.643719	0.378915
1369	C	0.754622	0.660729	0.340923
1370	C	0.74851	0.644252	0.631867
1371	C	0.748839	0.614065	0.626951
1372	C	0.756185	0.59942	0.330697
1373	H	0.748925	0.656638	0.602933
1374	H	0.76518	0.655884	0.409338
1375	H	0.766518	0.605834	0.401123
1376	H	0.749107	0.605916	0.594803
1377	C	0.903495	0.639512	0.387238
1378	C	0.873181	0.609543	0.379972
1379	C	0.860912	0.598661	0.33556
1380	C	0.882929	0.615795	0.632578
1381	C	0.912844	0.646157	0.639797
1382	C	0.922256	0.660009	0.350429
1383	H	0.874421	0.609633	0.600017
1384	H	0.857632	0.599152	0.407163
1385	H	0.908283	0.649216	0.419318
1386	H	0.924528	0.660584	0.612056
1387	C	0.994032	0.749408	0.011952
1388	C	0.974458	0.713851	0.011575
1389	C	0.939839	0.695459	0.021362
1390	C	0.922723	0.713323	0.697473
1391	C	0.940063	0.748831	0.692741
1392	C	0.974615	0.765452	0.682378
1393	H	0.985439	0.700125	0.004016
1394	N	0.889441	0.696635	0.707521
1395	C	0.529976	0.767309	0.005646
1396	C	0.549503	0.75126	0.672117
1397	C	0.583818	0.767199	0.660444
1398	C	0.600467	0.801915	0.649411
1399	C	0.583782	0.820441	0.990314
1400	C	0.549546	0.802769	0.00237
1401	N	0.632688	0.818155	0.634387
1402	H	0.538864	0.816993	0.008173
1403	H	0.646211	0.807876	0.631904
1404	H	0.641953	0.839412	0.952691
1405	H	0.878481	0.707617	0.720549
1406	H	0.875462	0.672833	0.038608
1407	H	0.985665	0.790552	0.678181
1408	H	0.538674	0.726697	0.680481
1409	C	0.771259	0.749971	0.008778
1410	C	0.806919	0.7664	0.008267
1411	C	0.825593	0.749866	0.004396
1412	C	0.808041	0.714309	0.67063
1413	C	0.772562	0.696284	0.674265
1414	C	0.755333	0.714376	0.675187
1415	H	0.820663	0.791658	0.010042
1416	N	0.825146	0.697523	0.666914
1417	C	0.75275	0.767623	0.012183
1418	C	0.768476	0.802973	0.683567
1419	C	0.751422	0.820396	0.693974
1420	C	0.715896	0.80198	0.697893
1421	C	0.698368	0.767299	0.020018
1422	C	0.717169	0.751472	0.010266
1423	N	0.699032	0.81813	0.709299
1424	H	0.703694	0.726864	0.00215
1425	H	0.709841	0.839365	0.724387
1426	H	0.675219	0.808242	0.040472
1427	H	0.814821	0.673949	0.670989
1428	H	0.8481	0.70808	0.991171
1429	H	0.730112	0.700372	0.677863
1430	H	0.79364	0.817311	0.680725
1431	C	0.771591	0.526834	0.007329
1432	C	0.755692	0.546333	0.003169
1433	C	0.77244	0.580454	0.99069
1434	C	0.807638	0.596983	0.650051
1435	C	0.825618	0.580601	0.662771
1436	C	0.80716	0.546428	0.674987
1437	H	0.730691	0.535655	0.008075
1438	N	0.823555	0.628662	0.63315
1439	C	0.753383	0.990697	0.010717
1440	C	0.717744	0.971166	0.677561
1441	C	0.699408	0.935822	0.679045
1442	C	0.717335	0.918218	0.676643
1443	C	0.752891	0.936151	0.009666
1444	C	0.769699	0.97141	0.011212
1445	N	0.700583	0.884291	0.673605
1446	H	0.794995	0.982889	0.010781
1447	H	0.676952	0.870961	0.677338
1448	H	0.711167	0.872034	0.997397
1449	H	0.847357	0.642096	0.630383
1450	H	0.811489	0.637251	0.949998
1451	H	0.820901	0.53572	0.683794
1452	H	0.703837	0.982548	0.677114
1453	C	0.6417	0.746425	0.717937
1454	C	0.611852	0.746981	0.710431
1455	C	0.601846	0.749861	0.666074
1456	C	0.619678	0.746064	0.963024
1457	C	0.649965	0.746366	0.97054
1458	C	0.662968	0.749366	0.681504
1459	H	0.614318	0.749582	0.930544
1460	H	0.600945	0.751293	0.737782
1461	H	0.650785	0.750352	0.750336
1462	H	0.66493	0.750165	0.943047
1463	C	0.772774	0.906481	0.723107
1464	C	0.772406	0.87599	0.728117
1465	C	0.768752	0.855854	0.690014
1466	C	0.771191	0.870107	0.980029
1467	C	0.772764	0.901206	0.975114
1468	C	0.771164	0.918992	0.679926
1469	H	0.766583	0.855734	0.951655
1470	H	0.768568	0.865828	0.759869
1471	H	0.76914	0.916863	0.751606
1472	H	0.76889	0.907666	0.943454
1473	C	0.616191	0.866975	0.708232
1474	C	0.645852	0.897743	0.714675
1475	C	0.663824	0.91824	0.677443
1476	C	0.648408	0.908473	0.967671
1477	C	0.618193	0.878151	0.961438
1478	C	0.602601	0.855617	0.664455
1479	H	0.661451	0.920854	0.939311
1480	H	0.657174	0.902065	0.745695
1481	H	0.607253	0.850885	0.735129
1482	H	0.610769	0.870105	0.928972
1483	C	0.874754	0.770132	0.71891
1484	C	0.904955	0.770025	0.725065
1485	C	0.922068	0.766283	0.687782
1486	C	0.910596	0.768225	0.977309
1487	C	0.881066	0.769664	0.971164
1488	C	0.861056	0.768036	0.675234
1489	H	0.920715	0.763512	0.949395
1490	H	0.910899	0.766403	0.757159
1491	H	0.860338	0.766557	0.746955
1492	H	0.871049	0.765357	0.939284
1493	C	0.758876	0.61397	0.707192
1494	C	0.757761	0.643719	0.71225
1495	C	0.754622	0.660729	0.674255
1496	C	0.74851	0.644252	0.965202
1497	C	0.748839	0.614065	0.960283
1498	C	0.756185	0.59942	0.664031
1499	H	0.748925	0.656638	0.936269
1500	H	0.76518	0.655884	0.74267
1501	H	0.766518	0.605834	0.734459
1502	H	0.749107	0.605916	0.928135
1503	C	0.903495	0.639512	0.720573
1504	C	0.873181	0.609543	0.713303
1505	C	0.860912	0.598661	0.668896
1506	C	0.882929	0.615795	0.96591
1507	C	0.912844	0.646157	0.973132
1508	C	0.922256	0.660009	0.68376
1509	H	0.874421	0.609633	0.933352
1510	H	0.857632	0.599152	0.740499
1511	H	0.908283	0.649216	0.752653
1512	H	0.924528	0.660584	0.945388
