data_C444H240N144_2018-02-15_10:43:48
#******************************************
#
# CIF file created by Zeo++
# Zeo++ is an open source package to
# analyze microporous materials
#
#*******************************************

_cell_length_a		34.1063   
_cell_length_b		26.3542   
_cell_length_c		29.9848   
_cell_angle_alpha		93.4413   
_cell_angle_beta		87.3415   
_cell_angle_gamma		90.2032   

_symmetry_space_group_name_H-M		'P1'
_symmetry_Int_Tables_number		1
_symmetry_cell_setting		Triclinic

loop_
_symmetry_equiv_pos_as_xyz
'+x,+y,+z'

loop_
_atom_site_label
_atom_site_type_symbol
_atom_site_fract_x
_atom_site_fract_y
_atom_site_fract_z
1	C	0.999513	0.467353	0.036559
2	C	0.498619	0.472516	0.08401
3	C	0.446581	0.040187	0.084727
4	C	0.448666	0.038955	0.037268
5	C	0.424762	0.073657	0.016133
6	C	0.39896	0.10802	0.040752
7	C	0.397055	0.107308	0.087852
8	C	0.420498	0.073822	0.109489
9	C	0.023235	0.442256	0.108098
10	C	0.048095	0.405882	0.085866
11	C	0.049125	0.398774	0.038779
12	C	0.024808	0.429806	0.014774
13	C	0.447621	0.467242	0.316225
14	C	0.449192	0.465422	0.268723
15	C	0.004971	0.028186	0.268189
16	C	0.003951	0.031981	0.315695
17	C	0.032719	0.056247	0.243332
18	C	0.059695	0.088109	0.264981
19	C	0.05935	0.092995	0.312098
20	C	0.031532	0.064889	0.00359
21	C	0.418916	0.436812	0.004653
22	C	0.392589	0.405571	0.313675
23	C	0.394855	0.404828	0.266553
24	C	0.422914	0.434266	0.244383
25	H	0.376094	0.382875	0.247876
26	H	0.423896	0.432917	0.210143
27	H	0.033627	0.053515	0.209085
28	H	0.07957	0.107701	0.245931
29	H	0.031223	0.068459	0.037805
30	H	0.417291	0.43739	0.038872
31	H	0.426664	0.074294	0.315314
32	H	0.379911	0.132711	0.107105
33	H	0.419197	0.075241	0.143734
34	H	0.02506	0.424583	0.31397
35	H	0.022507	0.445515	0.142298
36	H	0.064132	0.38319	0.104733
37	C	0.474946	0.001363	0.009775
38	C	0.477726	0.495359	0.242622
39	H	0.495302	0.468662	0.220746
40	H	0.461272	0.01956	0.221727
41	C	0.471767	0.008044	0.110247
42	H	0.489496	0.033295	0.131522
43	H	0.452657	0.4856	0.131821
44	C	0.085759	0.125105	0.999735
45	C	0.068913	0.357595	0.017419
46	C	0.365054	0.375911	0.001797
47	H	0.348111	0.391079	0.027018
48	H	0.101143	0.112965	0.024403
49	H	0.055801	0.338446	0.325932
50	C	0.380681	0.146422	0.019819
51	H	0.395639	0.162263	0.328241
52	C	0.17392	0.242725	0.351671
53	N	0.15129	0.202233	0.005988
54	C	0.112086	0.207811	0.001837
55	N	0.095851	0.254428	0.008959
56	C	0.117786	0.295658	0.020966
57	N	0.156822	0.289355	0.02626
58	N	0.212014	0.234842	0.01942
59	N	0.100054	0.339213	0.033112
60	N	0.089113	0.170832	0.987615
61	C	0.275342	0.260469	0.352728
62	N	0.298903	0.299343	0.007047
63	C	0.33849	0.293597	0.003614
64	N	0.354294	0.248242	0.011405
65	C	0.331459	0.208601	0.023491
66	N	0.291903	0.215196	0.027978
67	N	0.237163	0.268179	0.0196
68	N	0.348265	0.166754	0.035724
69	N	0.362419	0.32871	0.989136
70	C	0.999513	0.467353	0.369892
71	C	0.498619	0.472517	0.417342
72	C	0.446581	0.040188	0.418062
73	C	0.448666	0.038955	0.370601
74	C	0.424762	0.073658	0.349467
75	C	0.39896	0.108019	0.374083
76	C	0.397055	0.107308	0.421185
77	C	0.420499	0.073822	0.442822
78	C	0.023235	0.442257	0.44143
79	C	0.048095	0.405884	0.419199
80	C	0.049125	0.398774	0.372113
81	C	0.024808	0.429807	0.348109
82	C	0.447621	0.467243	0.649556
83	C	0.449192	0.465423	0.602056
84	C	0.004971	0.028186	0.601521
85	C	0.003951	0.031981	0.649028
86	C	0.032719	0.056246	0.576664
87	C	0.059695	0.088109	0.598313
88	C	0.05935	0.092995	0.645433
89	C	0.031531	0.064889	0.336924
90	C	0.418913	0.436813	0.337984
91	C	0.39259	0.405572	0.647008
92	C	0.394852	0.404826	0.599885
93	C	0.422914	0.434267	0.577717
94	H	0.376094	0.382876	0.581209
95	H	0.423896	0.432917	0.543475
96	H	0.033627	0.053515	0.542418
97	H	0.07957	0.107701	0.579266
98	H	0.031223	0.068459	0.371136
99	H	0.417291	0.43739	0.372203
100	H	0.426664	0.074294	0.648647
101	H	0.379911	0.132711	0.440437
102	H	0.419197	0.075241	0.477067
103	H	0.02506	0.424583	0.647302
104	H	0.022507	0.445516	0.475633
105	H	0.064132	0.38319	0.438066
106	C	0.474946	0.001363	0.343108
107	C	0.477727	0.495359	0.575955
108	H	0.495299	0.468662	0.554077
109	H	0.461272	0.01956	0.555061
110	C	0.471768	0.008044	0.443581
111	H	0.489497	0.033295	0.464856
112	H	0.452658	0.485601	0.465154
113	C	0.085759	0.125105	0.333069
114	C	0.068914	0.357595	0.350751
115	C	0.365054	0.375911	0.335132
116	H	0.348112	0.391078	0.36035
117	H	0.101143	0.112965	0.357734
118	H	0.055801	0.338445	0.659266
119	C	0.380682	0.146422	0.353152
120	H	0.395639	0.162263	0.661574
121	C	0.17392	0.242725	0.685006
122	N	0.15129	0.202232	0.339319
123	C	0.112086	0.207811	0.335168
124	N	0.095851	0.254428	0.342292
125	C	0.117786	0.295658	0.3543
126	N	0.156822	0.289356	0.359594
127	N	0.212014	0.234842	0.352754
128	N	0.100054	0.339212	0.366444
129	N	0.089113	0.170832	0.320949
130	C	0.275342	0.260469	0.68606
131	N	0.298904	0.299343	0.340379
132	C	0.33849	0.293597	0.336948
133	N	0.354294	0.248242	0.344737
134	C	0.331459	0.2086	0.356825
135	N	0.291903	0.215196	0.36131
136	N	0.237163	0.26818	0.352935
137	N	0.348265	0.166754	0.369056
138	N	0.362418	0.32871	0.322469
139	C	0.999513	0.46735	0.703224
140	C	0.498619	0.472517	0.750678
141	C	0.446582	0.040187	0.751394
142	C	0.448666	0.038955	0.703933
143	C	0.424763	0.073657	0.682799
144	C	0.39896	0.108019	0.707418
145	C	0.397055	0.107308	0.754518
146	C	0.420499	0.073822	0.776154
147	C	0.023236	0.442253	0.774763
148	C	0.048095	0.405883	0.752531
149	C	0.049125	0.398774	0.705445
150	C	0.024808	0.429807	0.681441
151	C	0.447621	0.467243	0.982892
152	C	0.449193	0.465423	0.935388
153	C	0.004971	0.028186	0.934856
154	C	0.003951	0.031981	0.98236
155	C	0.032719	0.056247	0.909999
156	C	0.059695	0.08811	0.931649
157	C	0.05935	0.092995	0.978765
158	C	0.031532	0.064889	0.670256
159	C	0.418913	0.436809	0.67132
160	C	0.39259	0.405572	0.98034
161	C	0.394852	0.404826	0.933218
162	C	0.422911	0.434266	0.911049
163	H	0.376094	0.382875	0.914541
164	H	0.423896	0.432915	0.876807
165	H	0.033627	0.053515	0.87575
166	H	0.07957	0.1077	0.912598
167	H	0.031223	0.068459	0.704472
168	H	0.417291	0.437391	0.705539
169	H	0.426664	0.074294	0.981979
170	H	0.379911	0.132711	0.773773
171	H	0.419197	0.075241	0.8104
172	H	0.02506	0.424583	0.980638
173	H	0.022507	0.445516	0.808965
174	H	0.064132	0.38319	0.771398
175	C	0.474946	0.001363	0.676441
176	C	0.477727	0.49536	0.909287
177	H	0.495299	0.468663	0.887413
178	H	0.461272	0.01956	0.888393
179	C	0.471768	0.008044	0.776913
180	H	0.489497	0.033295	0.798188
181	H	0.452658	0.485601	0.798486
182	C	0.085759	0.125106	0.666403
183	C	0.068914	0.357594	0.684083
184	C	0.365055	0.375911	0.668464
185	H	0.348112	0.391079	0.693685
186	H	0.101143	0.112965	0.69107
187	H	0.055801	0.338445	0.992598
188	C	0.380682	0.146422	0.686484
189	H	0.395639	0.162263	0.994906
190	C	0.17392	0.242725	0.018339
191	N	0.15129	0.202232	0.672654
192	C	0.112086	0.207811	0.668504
193	N	0.095851	0.254428	0.675624
194	C	0.117786	0.295658	0.687632
195	N	0.156822	0.289356	0.692926
196	N	0.212014	0.234841	0.686086
197	N	0.100055	0.339213	0.699779
198	N	0.089113	0.170832	0.654282
199	C	0.275342	0.260469	0.019394
200	N	0.298904	0.299343	0.673715
201	C	0.33849	0.293597	0.67028
202	N	0.354294	0.248242	0.678069
203	C	0.331459	0.208601	0.690157
204	N	0.291903	0.215196	0.694645
205	N	0.237163	0.26818	0.686267
206	N	0.348265	0.166754	0.702388
207	N	0.362419	0.328709	0.655801
208	C	0.999513	0.967353	0.036559
209	C	0.49862	0.972516	0.08401
210	C	0.446582	0.540187	0.084727
211	C	0.448664	0.538954	0.037268
212	C	0.424763	0.573657	0.016133
213	C	0.398961	0.608019	0.040752
214	C	0.397056	0.607308	0.087852
215	C	0.420496	0.573823	0.109489
216	C	0.023235	0.942256	0.108098
217	C	0.048095	0.905886	0.085866
218	C	0.049125	0.898774	0.038779
219	C	0.024808	0.929806	0.014774
220	C	0.447622	0.967246	0.316225
221	C	0.44919	0.965422	0.268723
222	C	0.004971	0.528188	0.268189
223	C	0.003951	0.531982	0.315695
224	C	0.032719	0.556248	0.243332
225	C	0.059695	0.588109	0.264981
226	C	0.05935	0.592995	0.312098
227	C	0.031531	0.564891	0.00359
228	C	0.418914	0.936812	0.004653
229	C	0.39259	0.905575	0.313675
230	C	0.394853	0.904828	0.266553
231	C	0.422912	0.934266	0.244383
232	H	0.376095	0.882876	0.247876
233	H	0.423897	0.932917	0.210143
234	H	0.033627	0.553517	0.209085
235	H	0.07957	0.6077	0.245931
236	H	0.031223	0.568462	0.037805
237	H	0.417291	0.937389	0.038872
238	H	0.426662	0.574295	0.315314
239	H	0.379909	0.63271	0.107105
240	H	0.419198	0.57524	0.143734
241	H	0.02506	0.924583	0.31397
242	H	0.022507	0.945515	0.142298
243	H	0.064132	0.88319	0.104733
244	C	0.474947	0.501364	0.009775
245	C	0.477727	0.995362	0.242622
246	H	0.4953	0.968666	0.220746
247	H	0.461273	0.51956	0.221727
248	C	0.471768	0.508044	0.110247
249	H	0.489494	0.533295	0.131522
250	H	0.452655	0.9856	0.131821
251	C	0.085759	0.625107	0.999735
252	C	0.068913	0.857595	0.017419
253	C	0.365055	0.875913	0.001797
254	H	0.348112	0.891079	0.027018
255	H	0.101143	0.612966	0.024403
256	H	0.0558	0.838447	0.325932
257	C	0.380682	0.646424	0.019819
258	H	0.39564	0.662262	0.328241
259	C	0.17392	0.742727	0.351671
260	N	0.15129	0.702233	0.005988
261	C	0.112086	0.707812	0.001837
262	N	0.095851	0.754431	0.008959
263	C	0.117786	0.79566	0.020966
264	N	0.156822	0.789357	0.02626
265	N	0.212014	0.734843	0.01942
266	N	0.100055	0.839213	0.033112
267	N	0.089113	0.670832	0.987615
268	C	0.275342	0.76047	0.352728
269	N	0.298901	0.799345	0.007047
270	C	0.338488	0.793598	0.003614
271	N	0.354295	0.748242	0.011405
272	C	0.33146	0.708601	0.023491
273	N	0.291903	0.715197	0.027978
274	N	0.237163	0.768182	0.0196
275	N	0.348266	0.666753	0.035724
276	N	0.36242	0.82871	0.989136
277	C	0.999514	0.967353	0.369892
278	C	0.49862	0.972516	0.417342
279	C	0.446582	0.540187	0.418062
280	C	0.448664	0.538954	0.370601
281	C	0.424763	0.573657	0.349467
282	C	0.398961	0.60802	0.374083
283	C	0.397056	0.607308	0.421185
284	C	0.420497	0.573823	0.442822
285	C	0.023236	0.942257	0.44143
286	C	0.048095	0.905886	0.419199
287	C	0.049125	0.898775	0.372113
288	C	0.024808	0.929807	0.348109
289	C	0.447622	0.967242	0.649556
290	C	0.44919	0.965423	0.602056
291	C	0.004971	0.528185	0.601521
292	C	0.003951	0.531982	0.649028
293	C	0.032719	0.556248	0.576664
294	C	0.059695	0.588109	0.598313
295	C	0.05935	0.592996	0.645433
296	C	0.031531	0.564892	0.336924
297	C	0.418914	0.936812	0.337984
298	C	0.392591	0.905571	0.647008
299	C	0.394853	0.904828	0.599885
300	C	0.422912	0.934266	0.577717
301	H	0.376095	0.882876	0.581209
302	H	0.423897	0.932917	0.543475
303	H	0.033627	0.553518	0.542418
304	H	0.07957	0.607701	0.579266
305	H	0.031223	0.568459	0.371136
306	H	0.417292	0.93739	0.372203
307	H	0.426662	0.574295	0.648647
308	H	0.379909	0.63271	0.440437
309	H	0.419198	0.575241	0.477067
310	H	0.02506	0.924583	0.647302
311	H	0.022507	0.945516	0.475633
312	H	0.064132	0.88319	0.438066
313	C	0.474947	0.501364	0.343108
314	C	0.477725	0.995359	0.575955
315	H	0.4953	0.968666	0.554077
316	H	0.461273	0.51956	0.555061
317	C	0.471769	0.508044	0.443581
318	H	0.489495	0.533296	0.464856
319	H	0.452656	0.9856	0.465154
320	C	0.085759	0.625106	0.333069
321	C	0.068913	0.857595	0.350751
322	C	0.365055	0.875914	0.335132
323	H	0.348113	0.891079	0.36035
324	H	0.101143	0.612966	0.357734
325	H	0.055801	0.838447	0.659266
326	C	0.380683	0.646421	0.353152
327	H	0.39564	0.662263	0.661574
328	C	0.17392	0.742727	0.685006
329	N	0.15129	0.702233	0.339319
330	C	0.112086	0.707813	0.335168
331	N	0.095851	0.754428	0.342292
332	C	0.117786	0.795661	0.3543
333	N	0.156823	0.789358	0.359594
334	N	0.212014	0.734843	0.352754
335	N	0.100055	0.839214	0.366444
336	N	0.089113	0.670835	0.320949
337	C	0.275343	0.76047	0.68606
338	N	0.298902	0.799346	0.340379
339	C	0.338488	0.793598	0.336948
340	N	0.354295	0.748242	0.344737
341	C	0.33146	0.708601	0.356825
342	N	0.291904	0.715198	0.36131
343	N	0.237163	0.768179	0.352935
344	N	0.348266	0.666754	0.369056
345	N	0.362419	0.828709	0.322469
346	C	0.999514	0.967354	0.703224
347	C	0.49862	0.972517	0.750678
348	C	0.44658	0.540187	0.751394
349	C	0.448664	0.538955	0.703933
350	C	0.424763	0.573658	0.682799
351	C	0.398958	0.60802	0.707418
352	C	0.397056	0.607308	0.754518
353	C	0.420497	0.573823	0.776154
354	C	0.023235	0.942257	0.774763
355	C	0.048095	0.905883	0.752531
356	C	0.049125	0.898775	0.705445
357	C	0.024808	0.929807	0.681441
358	C	0.447622	0.967243	0.982892
359	C	0.449191	0.965423	0.935388
360	C	0.004971	0.528186	0.934856
361	C	0.003951	0.531983	0.98236
362	C	0.032719	0.556249	0.909999
363	C	0.059695	0.58811	0.931649
364	C	0.05935	0.592996	0.978765
365	C	0.031531	0.564888	0.670256
366	C	0.418914	0.936813	0.67132
367	C	0.392591	0.905572	0.98034
368	C	0.394853	0.904829	0.933218
369	C	0.422912	0.934267	0.911049
370	H	0.376095	0.882877	0.914541
371	H	0.423894	0.932917	0.876807
372	H	0.033628	0.553514	0.87575
373	H	0.07957	0.607701	0.912598
374	H	0.031223	0.568459	0.704472
375	H	0.417289	0.937391	0.705539
376	H	0.426662	0.574296	0.981979
377	H	0.379909	0.632711	0.773773
378	H	0.419198	0.575241	0.8104
379	H	0.02506	0.924584	0.980638
380	H	0.022507	0.945516	0.808965
381	H	0.064132	0.883191	0.771398
382	C	0.474947	0.501365	0.676441
383	C	0.477725	0.99536	0.909287
384	H	0.4953	0.968663	0.887413
385	H	0.46127	0.519561	0.888393
386	C	0.471769	0.508045	0.776913
387	H	0.489495	0.533296	0.798188
388	H	0.452656	0.985601	0.798486
389	C	0.085759	0.625106	0.666403
390	C	0.068914	0.857596	0.684083
391	C	0.365056	0.87591	0.668464
392	H	0.348113	0.89108	0.693685
393	H	0.101143	0.612967	0.69107
394	H	0.055801	0.838448	0.992598
395	C	0.380683	0.646421	0.686484
396	H	0.39564	0.662263	0.994906
397	C	0.17392	0.742726	0.018339
398	N	0.15129	0.702234	0.672654
399	C	0.112086	0.70781	0.668504
400	N	0.095851	0.754428	0.675624
401	C	0.117786	0.795657	0.687632
402	N	0.156823	0.789355	0.692926
403	N	0.212014	0.734844	0.686086
404	N	0.100054	0.839214	0.699779
405	N	0.089113	0.670831	0.654282
406	C	0.275342	0.760469	0.019394
407	N	0.298902	0.799342	0.673715
408	C	0.338488	0.793599	0.67028
409	N	0.354292	0.748243	0.678069
410	C	0.33146	0.708601	0.690157
411	N	0.291904	0.715198	0.694645
412	N	0.237163	0.768179	0.686267
413	N	0.348266	0.666754	0.702388
414	N	0.36242	0.82871	0.655801
415	C	0.499513	0.467353	0.036559
416	C	0.998621	0.472516	0.08401
417	C	0.94658	0.040187	0.084727
418	C	0.948665	0.038955	0.037268
419	C	0.924764	0.073657	0.016133
420	C	0.898959	0.10802	0.040752
421	C	0.897054	0.107308	0.087852
422	C	0.920497	0.073822	0.109489
423	C	0.523235	0.442256	0.108098
424	C	0.548096	0.405882	0.085866
425	C	0.549126	0.398774	0.038779
426	C	0.524808	0.429806	0.014774
427	C	0.947623	0.467242	0.316225
428	C	0.949191	0.465422	0.268723
429	C	0.50497	0.028186	0.268189
430	C	0.503952	0.031981	0.315695
431	C	0.532718	0.056247	0.243332
432	C	0.559695	0.088109	0.264981
433	C	0.55935	0.092995	0.312098
434	C	0.531532	0.064889	0.00359
435	C	0.918915	0.436812	0.004653
436	C	0.892591	0.405571	0.313675
437	C	0.894854	0.404828	0.266553
438	C	0.922913	0.434266	0.244383
439	H	0.876093	0.382875	0.247876
440	H	0.923895	0.432917	0.210143
441	H	0.533627	0.053515	0.209085
442	H	0.579572	0.107701	0.245931
443	H	0.531223	0.068459	0.037805
444	H	0.91729	0.43739	0.038872
445	H	0.926663	0.074294	0.315314
446	H	0.87991	0.132711	0.107105
447	H	0.919199	0.075241	0.143734
448	H	0.52506	0.424583	0.31397
449	H	0.522506	0.445515	0.142298
450	H	0.564133	0.38319	0.104733
451	C	0.974945	0.001363	0.009775
452	C	0.977726	0.495359	0.242622
453	H	0.995301	0.468662	0.220746
454	H	0.961271	0.01956	0.221727
455	C	0.971767	0.008044	0.110247
456	H	0.989496	0.033295	0.131522
457	H	0.952657	0.4856	0.131821
458	C	0.58576	0.125105	0.999735
459	C	0.568913	0.357595	0.017419
460	C	0.865056	0.375911	0.001797
461	H	0.848113	0.391079	0.027018
462	H	0.601142	0.112965	0.024403
463	H	0.555802	0.338446	0.325932
464	C	0.880683	0.146422	0.019819
465	H	0.895638	0.162263	0.328241
466	C	0.67392	0.242725	0.351671
467	N	0.65129	0.202233	0.005988
468	C	0.612086	0.207811	0.001837
469	N	0.59585	0.254428	0.008959
470	C	0.617786	0.295658	0.020966
471	N	0.656821	0.289355	0.02626
472	N	0.712014	0.234842	0.01942
473	N	0.600056	0.339213	0.033112
474	N	0.589112	0.170832	0.987615
475	C	0.775344	0.260469	0.352728
476	N	0.798902	0.299343	0.007047
477	C	0.838489	0.293597	0.003614
478	N	0.854293	0.248242	0.011405
479	C	0.831461	0.208601	0.023491
480	N	0.791904	0.215196	0.027978
481	N	0.737164	0.268179	0.0196
482	N	0.848267	0.166754	0.035724
483	N	0.862421	0.32871	0.989136
484	C	0.499514	0.467353	0.369892
485	C	0.998621	0.472517	0.417342
486	C	0.946581	0.040188	0.418062
487	C	0.948665	0.038955	0.370601
488	C	0.924764	0.073658	0.349467
489	C	0.898959	0.108019	0.374083
490	C	0.897054	0.107308	0.421185
491	C	0.920498	0.073822	0.442822
492	C	0.523235	0.442257	0.44143
493	C	0.548097	0.405884	0.419199
494	C	0.549126	0.398774	0.372113
495	C	0.524808	0.429807	0.348109
496	C	0.947623	0.467243	0.649556
497	C	0.949191	0.465423	0.602056
498	C	0.50497	0.028186	0.601521
499	C	0.503952	0.031981	0.649028
500	C	0.532719	0.056246	0.576664
501	C	0.559695	0.088109	0.598313
502	C	0.55935	0.092995	0.645433
503	C	0.531532	0.064889	0.336924
504	C	0.918915	0.436813	0.337984
505	C	0.892592	0.405572	0.647008
506	C	0.894854	0.404826	0.599885
507	C	0.922913	0.434267	0.577717
508	H	0.876093	0.382876	0.581209
509	H	0.923895	0.432917	0.543475
510	H	0.533627	0.053515	0.542418
511	H	0.579572	0.107701	0.579266
512	H	0.531223	0.068459	0.371136
513	H	0.91729	0.43739	0.372203
514	H	0.926663	0.074294	0.648647
515	H	0.87991	0.132711	0.440437
516	H	0.919199	0.075241	0.477067
517	H	0.52506	0.424583	0.647302
518	H	0.522506	0.445516	0.475633
519	H	0.564133	0.38319	0.438066
520	C	0.974945	0.001363	0.343108
521	C	0.977726	0.495359	0.575955
522	H	0.995301	0.468662	0.554077
523	H	0.961271	0.01956	0.555061
524	C	0.971767	0.008044	0.443581
525	H	0.989496	0.033295	0.464856
526	H	0.952657	0.485601	0.465154
527	C	0.58576	0.125105	0.333069
528	C	0.568913	0.357595	0.350751
529	C	0.865056	0.375911	0.335132
530	H	0.848114	0.391078	0.36035
531	H	0.601143	0.112965	0.357734
532	H	0.555802	0.338445	0.659266
533	C	0.880681	0.146422	0.353152
534	H	0.895638	0.162263	0.661574
535	C	0.67392	0.242725	0.685006
536	N	0.65129	0.202232	0.339319
537	C	0.612086	0.207811	0.335168
538	N	0.59585	0.254428	0.342292
539	C	0.617786	0.295658	0.3543
540	N	0.656822	0.289356	0.359594
541	N	0.712014	0.234842	0.352754
542	N	0.600056	0.339212	0.366444
543	N	0.589112	0.170832	0.320949
544	C	0.775341	0.260469	0.68606
545	N	0.798903	0.299343	0.340379
546	C	0.838489	0.293597	0.336948
547	N	0.854293	0.248242	0.344737
548	C	0.831461	0.2086	0.356825
549	N	0.791905	0.215196	0.36131
550	N	0.737164	0.26818	0.352935
551	N	0.848267	0.166754	0.369056
552	N	0.86242	0.32871	0.322469
553	C	0.499514	0.46735	0.703224
554	C	0.998621	0.472517	0.750678
555	C	0.946581	0.040187	0.751394
556	C	0.948665	0.038955	0.703933
557	C	0.924765	0.073657	0.682799
558	C	0.898959	0.108019	0.707418
559	C	0.897054	0.107308	0.754518
560	C	0.920498	0.073822	0.776154
561	C	0.523236	0.442253	0.774763
562	C	0.548094	0.405883	0.752531
563	C	0.549127	0.398774	0.705445
564	C	0.524808	0.429807	0.681441
565	C	0.947623	0.467243	0.982892
566	C	0.949192	0.465423	0.935388
567	C	0.50497	0.028186	0.934856
568	C	0.50395	0.031981	0.98236
569	C	0.532719	0.056247	0.909999
570	C	0.559695	0.08811	0.931649
571	C	0.55935	0.092995	0.978765
572	C	0.531532	0.064889	0.670256
573	C	0.918915	0.436809	0.67132
574	C	0.892589	0.405572	0.98034
575	C	0.894854	0.404826	0.933218
576	C	0.922913	0.434266	0.911049
577	H	0.876093	0.382875	0.914541
578	H	0.923895	0.432915	0.876807
579	H	0.533627	0.053515	0.87575
580	H	0.579569	0.1077	0.912598
581	H	0.531223	0.068459	0.704472
582	H	0.91729	0.437391	0.705539
583	H	0.926663	0.074294	0.981979
584	H	0.87991	0.132711	0.773773
585	H	0.919199	0.075241	0.8104
586	H	0.52506	0.424583	0.980638
587	H	0.522507	0.445516	0.808965
588	H	0.564133	0.38319	0.771398
589	C	0.974946	0.001363	0.676441
590	C	0.977726	0.49536	0.909287
591	H	0.995301	0.468663	0.887413
592	H	0.961271	0.01956	0.888393
593	C	0.971767	0.008044	0.776913
594	H	0.989496	0.033295	0.798188
595	H	0.952657	0.485601	0.798486
596	C	0.58576	0.125106	0.666403
597	C	0.568914	0.357594	0.684083
598	C	0.865057	0.375911	0.668464
599	H	0.848114	0.391079	0.693685
600	H	0.601143	0.112965	0.69107
601	H	0.5558	0.338445	0.992598
602	C	0.880681	0.146422	0.686484
603	H	0.895638	0.162263	0.994906
604	C	0.67392	0.242725	0.018339
605	N	0.651291	0.202232	0.672654
606	C	0.612086	0.207811	0.668504
607	N	0.595851	0.254428	0.675624
608	C	0.617787	0.295658	0.687632
609	N	0.656822	0.289356	0.692926
610	N	0.712015	0.234841	0.686086
611	N	0.600056	0.339213	0.699779
612	N	0.589112	0.170832	0.654282
613	C	0.775344	0.260469	0.019394
614	N	0.798903	0.299343	0.673715
615	C	0.838489	0.293597	0.67028
616	N	0.854293	0.248242	0.678069
617	C	0.831461	0.208601	0.690157
618	N	0.791902	0.215196	0.694645
619	N	0.737164	0.26818	0.686267
620	N	0.848267	0.166754	0.702388
621	N	0.862421	0.328709	0.655801
622	C	0.499514	0.967353	0.036559
623	C	0.998619	0.972516	0.08401
624	C	0.946581	0.540187	0.084727
625	C	0.948666	0.538954	0.037268
626	C	0.924762	0.573657	0.016133
627	C	0.89896	0.608019	0.040752
628	C	0.897055	0.607308	0.087852
629	C	0.920498	0.573823	0.109489
630	C	0.523236	0.942256	0.108098
631	C	0.548094	0.905886	0.085866
632	C	0.549124	0.898774	0.038779
633	C	0.524809	0.929806	0.014774
634	C	0.947621	0.967246	0.316225
635	C	0.949192	0.965422	0.268723
636	C	0.504971	0.528188	0.268189
637	C	0.50395	0.531982	0.315695
638	C	0.532719	0.556248	0.243332
639	C	0.559696	0.588109	0.264981
640	C	0.559351	0.592995	0.312098
641	C	0.531533	0.564891	0.00359
642	C	0.918916	0.936812	0.004653
643	C	0.892589	0.905575	0.313675
644	C	0.894855	0.904828	0.266553
645	C	0.922914	0.934266	0.244383
646	H	0.876094	0.882876	0.247876
647	H	0.923896	0.932917	0.210143
648	H	0.533628	0.553517	0.209085
649	H	0.57957	0.6077	0.245931
650	H	0.531224	0.568462	0.037805
651	H	0.917291	0.937389	0.038872
652	H	0.926664	0.574295	0.315314
653	H	0.879911	0.63271	0.107105
654	H	0.919197	0.57524	0.143734
655	H	0.525061	0.924583	0.31397
656	H	0.522507	0.945515	0.142298
657	H	0.564131	0.88319	0.104733
658	C	0.974946	0.501364	0.009775
659	C	0.977727	0.995362	0.242622
660	H	0.995302	0.968666	0.220746
661	H	0.961272	0.51956	0.221727
662	C	0.971767	0.508044	0.110247
663	H	0.989496	0.533295	0.131522
664	H	0.952658	0.9856	0.131821
665	C	0.585758	0.625107	0.999735
666	C	0.568914	0.857595	0.017419
667	C	0.865057	0.875913	0.001797
668	H	0.848114	0.891079	0.027018
669	H	0.601143	0.612966	0.024403
670	H	0.5558	0.838447	0.325932
671	C	0.880682	0.646424	0.019819
672	H	0.895639	0.662262	0.328241
673	C	0.673921	0.742727	0.351671
674	N	0.651291	0.702233	0.005988
675	C	0.612087	0.707812	0.001837
676	N	0.595851	0.754431	0.008959
677	C	0.617787	0.79566	0.020966
678	N	0.656822	0.789357	0.02626
679	N	0.712015	0.734843	0.01942
680	N	0.600054	0.839213	0.033112
681	N	0.589113	0.670832	0.987615
682	C	0.775342	0.76047	0.352728
683	N	0.798903	0.799345	0.007047
684	C	0.83849	0.793598	0.003614
685	N	0.854294	0.748242	0.011405
686	C	0.831459	0.708601	0.023491
687	N	0.791903	0.715197	0.027978
688	N	0.737162	0.768182	0.0196
689	N	0.848268	0.666753	0.035724
690	N	0.862419	0.82871	0.989136
691	C	0.499515	0.967353	0.369892
692	C	0.998619	0.972516	0.417342
693	C	0.946582	0.540187	0.418062
694	C	0.948666	0.538954	0.370601
695	C	0.924762	0.573657	0.349467
696	C	0.89896	0.60802	0.374083
697	C	0.897055	0.607308	0.421185
698	C	0.920499	0.573823	0.442822
699	C	0.523236	0.942257	0.44143
700	C	0.548095	0.905886	0.419199
701	C	0.549124	0.898775	0.372113
702	C	0.524809	0.929807	0.348109
703	C	0.947621	0.967242	0.649556
704	C	0.949192	0.965423	0.602056
705	C	0.504971	0.528185	0.601521
706	C	0.50395	0.531982	0.649028
707	C	0.53272	0.556248	0.576664
708	C	0.559696	0.588109	0.598313
709	C	0.559351	0.592996	0.645433
710	C	0.53153	0.564892	0.336924
711	C	0.918916	0.936812	0.337984
712	C	0.89259	0.905571	0.647008
713	C	0.894855	0.904828	0.599885
714	C	0.922914	0.934266	0.577717
715	H	0.876094	0.882876	0.581209
716	H	0.923896	0.932917	0.543475
717	H	0.533628	0.553518	0.542418
718	H	0.57957	0.607701	0.579266
719	H	0.531224	0.568459	0.371136
720	H	0.917291	0.93739	0.372203
721	H	0.926664	0.574295	0.648647
722	H	0.879911	0.63271	0.440437
723	H	0.919197	0.575241	0.477067
724	H	0.525061	0.924583	0.647302
725	H	0.522507	0.945516	0.475633
726	H	0.564131	0.88319	0.438066
727	C	0.974946	0.501364	0.343108
728	C	0.977727	0.995359	0.575955
729	H	0.995302	0.968666	0.554077
730	H	0.961272	0.51956	0.555061
731	C	0.971768	0.508044	0.443581
732	H	0.989497	0.533296	0.464856
733	H	0.952658	0.9856	0.465154
734	C	0.58576	0.625106	0.333069
735	C	0.568914	0.857595	0.350751
736	C	0.865054	0.875914	0.335132
737	H	0.848115	0.891079	0.36035
738	H	0.601144	0.612966	0.357734
739	H	0.5558	0.838447	0.659266
740	C	0.880682	0.646421	0.353152
741	H	0.895639	0.662263	0.661574
742	C	0.673921	0.742727	0.685006
743	N	0.651291	0.702233	0.339319
744	C	0.612087	0.707813	0.335168
745	N	0.595851	0.754428	0.342292
746	C	0.617787	0.795661	0.3543
747	N	0.656823	0.789358	0.359594
748	N	0.712015	0.734843	0.352754
749	N	0.600054	0.839214	0.366444
750	N	0.589113	0.670835	0.320949
751	C	0.775342	0.76047	0.68606
752	N	0.798904	0.799346	0.340379
753	C	0.83849	0.793598	0.336948
754	N	0.854294	0.748242	0.344737
755	C	0.831459	0.708601	0.356825
756	N	0.791903	0.715198	0.36131
757	N	0.737162	0.768179	0.352935
758	N	0.848265	0.666754	0.369056
759	N	0.862419	0.828709	0.322469
760	C	0.499515	0.967354	0.703224
761	C	0.998619	0.972517	0.750678
762	C	0.946582	0.540187	0.751394
763	C	0.948666	0.538955	0.703933
764	C	0.924763	0.573658	0.682799
765	C	0.89896	0.60802	0.707418
766	C	0.897055	0.607308	0.754518
767	C	0.920499	0.573823	0.776154
768	C	0.523237	0.942257	0.774763
769	C	0.548095	0.905883	0.752531
770	C	0.549125	0.898775	0.705445
771	C	0.524809	0.929807	0.681441
772	C	0.947621	0.967243	0.982892
773	C	0.949193	0.965423	0.935388
774	C	0.504971	0.528186	0.934856
775	C	0.503951	0.531983	0.98236
776	C	0.53272	0.556249	0.909999
777	C	0.559696	0.58811	0.931649
778	C	0.559351	0.592996	0.978765
779	C	0.531531	0.564888	0.670256
780	C	0.918916	0.936813	0.67132
781	C	0.89259	0.905572	0.98034
782	C	0.894855	0.904829	0.933218
783	C	0.922914	0.934267	0.911049
784	H	0.876094	0.882877	0.914541
785	H	0.923896	0.932917	0.876807
786	H	0.533628	0.553514	0.87575
787	H	0.57957	0.607701	0.912598
788	H	0.531224	0.568459	0.704472
789	H	0.917291	0.937391	0.705539
790	H	0.926664	0.574296	0.981979
791	H	0.879911	0.632711	0.773773
792	H	0.919197	0.575241	0.8104
793	H	0.525061	0.924584	0.980638
794	H	0.522508	0.945516	0.808965
795	H	0.564131	0.883191	0.771398
796	C	0.974946	0.501365	0.676441
797	C	0.977727	0.99536	0.909287
798	H	0.995299	0.968663	0.887413
799	H	0.961272	0.519561	0.888393
800	C	0.971768	0.508045	0.776913
801	H	0.989497	0.533296	0.798188
802	H	0.952658	0.985601	0.798486
803	C	0.585761	0.625106	0.666403
804	C	0.568915	0.857596	0.684083
805	C	0.865055	0.87591	0.668464
806	H	0.848112	0.89108	0.693685
807	H	0.601144	0.612967	0.69107
808	H	0.555801	0.838448	0.992598
809	C	0.880682	0.646421	0.686484
810	H	0.895639	0.662263	0.994906
811	C	0.673921	0.742726	0.018339
812	N	0.651292	0.702234	0.672654
813	C	0.612087	0.70781	0.668504
814	N	0.595852	0.754428	0.675624
815	C	0.617788	0.795657	0.687632
816	N	0.656823	0.789355	0.692926
817	N	0.712016	0.734844	0.686086
818	N	0.600054	0.839214	0.699779
819	N	0.589113	0.670831	0.654282
820	C	0.775342	0.760469	0.019394
821	N	0.798904	0.799342	0.673715
822	C	0.83849	0.793599	0.67028
823	N	0.854294	0.748243	0.678069
824	C	0.831459	0.708601	0.690157
825	N	0.791903	0.715198	0.694645
826	N	0.737162	0.768179	0.686267
827	N	0.848265	0.666754	0.702388
828	N	0.862419	0.82871	0.655801
