data_C864H360N144_2018-02-15_10:36:06
#******************************************
#
# CIF file created by Zeo++
# Zeo++ is an open source package to
# analyze microporous materials
#
#*******************************************

_cell_length_a		46.3967   
_cell_length_b		46.3967   
_cell_length_c		29.5972   
_cell_angle_alpha		89.999   
_cell_angle_beta		90.001   
_cell_angle_gamma		120   

_symmetry_space_group_name_H-M		'P1'
_symmetry_Int_Tables_number		1
_symmetry_cell_setting		Triclinic

loop_
_symmetry_equiv_pos_as_xyz
'+x,+y,+z'

loop_
_atom_site_label
_atom_site_type_symbol
_atom_site_fract_x
_atom_site_fract_y
_atom_site_fract_z
1	C	0.028449	0.265353	0.340163
2	C	0.046285	0.300982	0.340174
3	C	0.081722	0.318742	0.34016
4	C	0.098639	0.300559	0.340187
5	C	0.081861	0.265455	0.340147
6	C	0.04642	0.247691	0.340167
7	C	0.027897	0.317754	0.34018
8	C	0.028179	0.212532	0.340167
9	H	0.124233	0.313384	0.340241
10	H	0.039749	0.343189	0.340177
11	H	0.040116	0.199033	0.34016
12	C	0.118658	0.250834	0.047294
13	N	0.148343	0.25166	0.04592
14	N	0.148481	0.251972	0.301218
15	C	0.118808	0.251168	0.299856
16	C	0.102337	0.250807	0.340265
17	H	0.110606	0.254417	0.077823
18	H	0.110853	0.254943	0.269365
19	C	0.147339	0.398029	0.047234
20	N	0.118449	0.36837	0.045917
21	C	0.102137	0.353712	0.006923
22	N	0.118525	0.368239	0.301234
23	C	0.147422	0.397882	0.299854
24	C	0.028449	0.265353	0.673498
25	C	0.046285	0.300982	0.673505
26	C	0.081722	0.318742	0.673495
27	C	0.098639	0.300559	0.673522
28	C	0.081861	0.265455	0.673478
29	C	0.04642	0.247691	0.673502
30	C	0.027897	0.317754	0.673515
31	C	0.028179	0.212532	0.673502
32	H	0.124233	0.313384	0.673573
33	H	0.039749	0.343189	0.673512
34	H	0.040116	0.199033	0.673495
35	C	0.118658	0.250834	0.380627
36	N	0.148343	0.25166	0.379255
37	N	0.148481	0.251972	0.634552
38	C	0.118808	0.251168	0.633191
39	C	0.102338	0.250807	0.6736
40	H	0.110606	0.254417	0.411156
41	H	0.110853	0.254943	0.602698
42	C	0.147339	0.398029	0.380569
43	N	0.118449	0.36837	0.379252
44	C	0.102137	0.353712	0.340258
45	N	0.118525	0.368239	0.634569
46	C	0.147422	0.397882	0.633187
47	C	0.028449	0.265353	0.00683
48	C	0.046285	0.300982	0.006839
49	C	0.081722	0.318742	0.006827
50	C	0.098639	0.300559	0.006854
51	C	0.081861	0.265455	0.006811
52	C	0.04642	0.247691	0.006834
53	C	0.027897	0.317754	0.006848
54	C	0.028179	0.212532	0.006835
55	H	0.124233	0.313384	0.006906
56	H	0.039749	0.343189	0.006845
57	H	0.040116	0.199033	0.006826
58	C	0.118658	0.250834	0.713962
59	N	0.148343	0.25166	0.712587
60	N	0.148481	0.251972	0.967884
61	C	0.118808	0.251168	0.966522
62	C	0.102337	0.250807	0.006933
63	H	0.110606	0.254417	0.744492
64	H	0.110853	0.254944	0.936033
65	C	0.147339	0.398029	0.713901
66	N	0.118449	0.36837	0.712583
67	C	0.102138	0.353712	0.67359
68	N	0.118525	0.368239	0.967901
69	C	0.147421	0.397882	0.966522
70	C	0.028448	0.765352	0.340163
71	C	0.046286	0.800983	0.340174
72	C	0.081723	0.818743	0.34016
73	C	0.09864	0.80056	0.340187
74	C	0.081862	0.765456	0.340147
75	C	0.04642	0.747691	0.340167
76	C	0.027897	0.817752	0.34018
77	C	0.028181	0.712533	0.340167
78	H	0.124235	0.813385	0.340241
79	H	0.039748	0.843187	0.340177
80	H	0.040117	0.699031	0.34016
81	C	0.118659	0.750834	0.047294
82	N	0.148344	0.751661	0.04592
83	N	0.148479	0.75197	0.301218
84	C	0.118808	0.751166	0.299856
85	C	0.102336	0.750805	0.340265
86	H	0.110608	0.754418	0.077823
87	H	0.110854	0.754944	0.269365
88	C	0.147338	0.898027	0.047234
89	N	0.118449	0.868371	0.045917
90	C	0.102138	0.853712	0.006923
91	N	0.118525	0.868237	0.301234
92	C	0.147422	0.897883	0.299854
93	C	0.02845	0.765352	0.673498
94	C	0.046285	0.800983	0.673505
95	C	0.081723	0.818743	0.673495
96	C	0.09864	0.80056	0.673522
97	C	0.081862	0.765456	0.673478
98	C	0.046419	0.747691	0.673502
99	C	0.027896	0.817752	0.673515
100	C	0.02818	0.712533	0.673502
101	H	0.124234	0.813385	0.673573
102	H	0.039747	0.843187	0.673512
103	H	0.040116	0.699031	0.673495
104	C	0.118658	0.750834	0.380627
105	N	0.148343	0.751661	0.379255
106	N	0.148481	0.75197	0.634552
107	C	0.118808	0.751166	0.633191
108	C	0.102337	0.750805	0.6736
109	H	0.110607	0.754418	0.411156
110	H	0.110853	0.754944	0.602698
111	C	0.147338	0.898027	0.380569
112	N	0.11845	0.868371	0.379252
113	C	0.102137	0.853712	0.340258
114	N	0.118524	0.868237	0.634569
115	C	0.147422	0.897883	0.633187
116	C	0.028449	0.765352	0.00683
117	C	0.046286	0.800983	0.006839
118	C	0.081722	0.818743	0.006827
119	C	0.098639	0.80056	0.006854
120	C	0.081861	0.765456	0.006811
121	C	0.04642	0.747691	0.006834
122	C	0.027897	0.817752	0.006848
123	C	0.028179	0.712533	0.006835
124	H	0.124234	0.813385	0.006906
125	H	0.039749	0.843187	0.006845
126	H	0.040115	0.699031	0.006826
127	C	0.118658	0.750834	0.713962
128	N	0.148345	0.751661	0.712587
129	N	0.14848	0.75197	0.967884
130	C	0.118807	0.751166	0.966522
131	C	0.102336	0.750805	0.006933
132	H	0.110606	0.754418	0.744492
133	H	0.110854	0.754944	0.936033
134	C	0.147339	0.898027	0.713901
135	N	0.11845	0.868371	0.712583
136	C	0.102139	0.853712	0.67359
137	N	0.118524	0.868237	0.967901
138	C	0.147421	0.897883	0.966522
139	C	0.251386	0.264786	0.006832
140	C	0.215756	0.24699	0.006823
141	C	0.197991	0.264662	0.006793
142	C	0.216168	0.29976	0.006816
143	C	0.251274	0.318093	0.006803
144	C	0.198987	0.211831	0.006818
145	H	0.203339	0.312525	0.006861
146	C	0.251685	0.211356	0.006818
147	C	0.21652	0.194444	0.006813
148	H	0.203029	0.169007	0.006796
149	H	0.173552	0.198246	0.006803
150	C	0.252055	0.488251	0.006839
151	C	0.252166	0.434969	0.006804
152	C	0.217064	0.418058	0.006805
153	C	0.198744	0.434845	0.0068
154	C	0.216423	0.470285	0.006835
155	C	0.199512	0.488535	0.006844
156	H	0.204294	0.392464	0.006833
157	C	0.252053	0.041814	0.006848
158	C	0.216897	0.023442	0.006851
159	H	0.203309	0.035287	0.006845
160	H	0.174076	0.476604	0.006832
161	C	0.163021	0.250095	0.00689
162	H	0.262326	0.357867	0.077824
163	H	0.261787	0.357595	0.26935
164	C	0.163624	0.414392	0.340204
165	H	0.158995	0.406065	0.077754
166	H	0.159117	0.405822	0.269339
167	C	0.255254	0.142423	0.047231
168	N	0.256461	0.113765	0.045931
169	C	0.255045	0.097575	0.006927
170	N	0.256656	0.113836	0.301227
171	C	0.255467	0.142502	0.299864
172	C	0.254923	0.158598	0.340207
173	H	0.258767	0.15406	0.077748
174	H	0.259104	0.154173	0.269349
175	C	0.251386	0.264786	0.340167
176	C	0.215756	0.24699	0.340157
177	C	0.197991	0.264662	0.340126
178	C	0.216168	0.29976	0.34015
179	C	0.251274	0.318093	0.340133
180	C	0.198987	0.211831	0.34015
181	H	0.203339	0.312525	0.340194
182	C	0.251685	0.211356	0.340153
183	C	0.21652	0.194444	0.340147
184	H	0.203029	0.169007	0.34013
185	H	0.173552	0.198246	0.340133
186	C	0.252056	0.488251	0.340174
187	C	0.252166	0.434969	0.34014
188	C	0.217065	0.418058	0.34014
189	C	0.198745	0.434845	0.340133
190	C	0.216424	0.470285	0.34017
191	C	0.199512	0.488535	0.340177
192	H	0.204294	0.392464	0.340167
193	C	0.252052	0.041813	0.34018
194	C	0.216898	0.023442	0.340184
195	H	0.203309	0.035287	0.34018
196	H	0.174075	0.476601	0.340167
197	C	0.163021	0.250095	0.340224
198	H	0.262327	0.357867	0.411156
199	H	0.261787	0.357595	0.602684
200	C	0.163624	0.414392	0.673536
201	H	0.158996	0.406065	0.411089
202	H	0.159117	0.405822	0.602674
203	C	0.255254	0.142423	0.380566
204	N	0.256461	0.113764	0.379265
205	C	0.255045	0.097574	0.340261
206	N	0.256656	0.113836	0.634562
207	C	0.255467	0.142502	0.633197
208	C	0.254923	0.158598	0.673542
209	H	0.258767	0.15406	0.411082
210	H	0.259105	0.154173	0.602684
211	C	0.251386	0.264786	0.673498
212	C	0.215756	0.24699	0.673492
213	C	0.197991	0.264662	0.673461
214	C	0.216168	0.29976	0.673485
215	C	0.251274	0.318093	0.673468
216	C	0.198987	0.211831	0.673485
217	H	0.203339	0.312525	0.673529
218	C	0.251685	0.211356	0.673485
219	C	0.21652	0.194444	0.673482
220	H	0.203029	0.169007	0.673461
221	H	0.173552	0.198246	0.673468
222	C	0.252056	0.488251	0.673505
223	C	0.252166	0.434969	0.673471
224	C	0.217065	0.418058	0.673471
225	C	0.198745	0.434845	0.673465
226	C	0.216424	0.470285	0.673502
227	C	0.199512	0.488535	0.673512
228	H	0.204294	0.392464	0.673502
229	C	0.252051	0.041813	0.673515
230	C	0.216898	0.023442	0.673519
231	H	0.203309	0.035287	0.673512
232	H	0.174075	0.476601	0.673498
233	C	0.163021	0.250095	0.673559
234	H	0.262327	0.357867	0.744492
235	H	0.261787	0.357595	0.93602
236	C	0.163624	0.414392	0.00687
237	H	0.158996	0.406065	0.744421
238	H	0.159117	0.405822	0.936006
239	C	0.255254	0.142423	0.713898
240	N	0.256461	0.113764	0.7126
241	C	0.255045	0.097574	0.673596
242	N	0.256656	0.113836	0.967894
243	C	0.255467	0.142502	0.966532
244	C	0.254923	0.158598	0.006873
245	H	0.258767	0.15406	0.744417
246	H	0.259104	0.154173	0.936016
247	C	0.251386	0.764787	0.006832
248	C	0.215757	0.74699	0.006823
249	C	0.197992	0.764662	0.006793
250	C	0.216169	0.799761	0.006816
251	C	0.251275	0.818093	0.006803
252	C	0.198987	0.711831	0.006818
253	H	0.203339	0.812526	0.006861
254	C	0.251685	0.711356	0.006818
255	C	0.216521	0.694444	0.006813
256	H	0.20303	0.669007	0.006796
257	H	0.173552	0.698245	0.006803
258	C	0.252055	0.988249	0.006839
259	C	0.252165	0.934968	0.006804
260	C	0.217064	0.918057	0.006805
261	C	0.198745	0.934843	0.0068
262	C	0.216424	0.970286	0.006835
263	C	0.199513	0.988536	0.006844
264	H	0.204294	0.892465	0.006833
265	C	0.252053	0.541814	0.006848
266	C	0.216898	0.523442	0.006851
267	H	0.203309	0.535286	0.006845
268	H	0.174075	0.976602	0.006832
269	C	0.163021	0.750095	0.00689
270	H	0.262326	0.857865	0.077824
271	H	0.261788	0.857595	0.26935
272	C	0.163623	0.914391	0.340204
273	H	0.158996	0.906065	0.077754
274	H	0.159118	0.905822	0.269339
275	C	0.255255	0.642424	0.047231
276	N	0.256461	0.613764	0.045931
277	C	0.255046	0.597575	0.006927
278	N	0.256657	0.613837	0.301227
279	C	0.255467	0.642502	0.299864
280	C	0.254922	0.658596	0.340207
281	H	0.258767	0.654059	0.077748
282	H	0.259104	0.654172	0.269349
283	C	0.251387	0.764787	0.340167
284	C	0.215757	0.74699	0.340157
285	C	0.197992	0.764662	0.340126
286	C	0.216169	0.799761	0.34015
287	C	0.251275	0.818093	0.340133
288	C	0.198987	0.711831	0.34015
289	H	0.203339	0.812526	0.340194
290	C	0.251685	0.711356	0.340153
291	C	0.216521	0.694444	0.340147
292	H	0.20303	0.669007	0.34013
293	H	0.173552	0.698245	0.340133
294	C	0.252056	0.988249	0.340174
295	C	0.252166	0.934968	0.34014
296	C	0.217065	0.918057	0.34014
297	C	0.198744	0.934843	0.340133
298	C	0.216424	0.970286	0.34017
299	C	0.199511	0.988533	0.340177
300	H	0.204295	0.892465	0.340167
301	C	0.252053	0.541814	0.34018
302	C	0.216898	0.523442	0.340184
303	H	0.203309	0.535286	0.34018
304	H	0.174077	0.976602	0.340167
305	C	0.163021	0.750096	0.340224
306	H	0.262326	0.857866	0.411156
307	H	0.261788	0.857595	0.602684
308	C	0.163623	0.914391	0.673536
309	H	0.158996	0.906065	0.411089
310	H	0.159118	0.905822	0.602674
311	C	0.255255	0.642424	0.380566
312	N	0.256461	0.613764	0.379265
313	C	0.255046	0.597575	0.340261
314	N	0.256657	0.613837	0.634562
315	C	0.255467	0.642502	0.633197
316	C	0.254922	0.658596	0.673542
317	H	0.258767	0.654059	0.411082
318	H	0.259104	0.654172	0.602684
319	C	0.251387	0.764787	0.673498
320	C	0.215757	0.74699	0.673492
321	C	0.197992	0.764662	0.673461
322	C	0.216169	0.799761	0.673485
323	C	0.251275	0.818093	0.673468
324	C	0.198987	0.711831	0.673485
325	H	0.20334	0.812526	0.673529
326	C	0.251685	0.711356	0.673485
327	C	0.216521	0.694444	0.673482
328	H	0.20303	0.669007	0.673461
329	H	0.173552	0.698245	0.673468
330	C	0.252056	0.988249	0.673505
331	C	0.252166	0.934968	0.673471
332	C	0.217065	0.918057	0.673471
333	C	0.198745	0.934843	0.673465
334	C	0.216425	0.970286	0.673502
335	C	0.199511	0.988533	0.673512
336	H	0.204295	0.892465	0.673502
337	C	0.252053	0.541814	0.673515
338	C	0.216898	0.523442	0.673519
339	H	0.203309	0.535286	0.673512
340	H	0.174076	0.976602	0.673498
341	C	0.163021	0.750096	0.673559
342	H	0.262326	0.857866	0.744492
343	H	0.261788	0.857595	0.93602
344	C	0.163624	0.914391	0.00687
345	H	0.158997	0.906065	0.744421
346	H	0.159117	0.905822	0.936006
347	C	0.255255	0.642424	0.713898
348	N	0.256461	0.613764	0.7126
349	C	0.255046	0.597575	0.673596
350	N	0.256657	0.613837	0.967894
351	C	0.255467	0.642502	0.966532
352	C	0.254924	0.658599	0.006873
353	H	0.258767	0.654059	0.744417
354	H	0.259104	0.654172	0.936016
355	C	0.269044	0.30042	0.006846
356	C	0.304205	0.317338	0.006872
357	C	0.269327	0.246989	0.006833
358	C	0.269493	0.193712	0.006793
359	C	0.304606	0.212075	0.006829
360	C	0.322753	0.247169	0.006815
361	C	0.304957	0.264801	0.006858
362	H	0.317473	0.199349	0.006881
363	C	0.321732	0.299957	0.006881
364	H	0.317702	0.342774	0.006869
365	C	0.269843	0.470407	0.006843
366	C	0.305003	0.488794	0.006854
367	C	0.269858	0.02399	0.006843
368	C	0.30549	0.041974	0.006846
369	C	0.323138	0.077425	0.006826
370	C	0.30478	0.094182	0.006851
371	C	0.269689	0.077241	0.006835
372	C	0.322395	0.023714	0.006852
373	H	0.317512	0.119776	0.006886
374	H	0.318584	0.47694	0.006845
375	C	0.265908	0.369517	0.047306
376	N	0.265151	0.398417	0.046
377	C	0.266755	0.414562	0.006892
378	N	0.264833	0.398246	0.301137
379	C	0.265566	0.369336	0.299833
380	C	0.265914	0.353219	0.340258
381	C	0.269044	0.30042	0.34018
382	C	0.304205	0.317339	0.340207
383	C	0.269327	0.246988	0.340167
384	C	0.269493	0.193711	0.340126
385	C	0.304606	0.212075	0.340163
386	C	0.322753	0.247168	0.34015
387	C	0.304957	0.264801	0.34019
388	H	0.317472	0.199349	0.340214
389	C	0.321732	0.299957	0.340214
390	H	0.317702	0.342774	0.340204
391	C	0.269843	0.470407	0.340177
392	C	0.305003	0.488794	0.340187
393	C	0.269858	0.02399	0.340177
394	C	0.305489	0.041973	0.34018
395	C	0.323138	0.077425	0.34016
396	C	0.304781	0.094182	0.340184
397	C	0.269688	0.077241	0.34017
398	C	0.322396	0.023715	0.340187
399	H	0.317512	0.119776	0.340221
400	H	0.318585	0.47694	0.34018
401	C	0.265909	0.369517	0.38064
402	N	0.265152	0.398417	0.379333
403	C	0.266756	0.414562	0.340224
404	N	0.264833	0.398246	0.634471
405	C	0.265566	0.369336	0.633167
406	C	0.265914	0.353219	0.673593
407	C	0.269044	0.30042	0.673515
408	C	0.304205	0.317339	0.673539
409	C	0.269327	0.246988	0.673502
410	C	0.269493	0.193711	0.673461
411	C	0.304606	0.212075	0.673495
412	C	0.322753	0.247168	0.673482
413	C	0.304957	0.264801	0.673526
414	H	0.317473	0.199348	0.673549
415	C	0.321732	0.299957	0.673549
416	H	0.317702	0.342774	0.673536
417	C	0.269843	0.470407	0.673512
418	C	0.305003	0.488794	0.673522
419	C	0.269859	0.02399	0.673512
420	C	0.305491	0.041973	0.673512
421	C	0.323137	0.077425	0.673492
422	C	0.304781	0.094182	0.673519
423	C	0.26969	0.077241	0.673502
424	C	0.322396	0.023714	0.673519
425	H	0.317511	0.119776	0.673553
426	H	0.318585	0.47694	0.673512
427	C	0.265907	0.369515	0.713975
428	N	0.265152	0.398417	0.712668
429	C	0.266756	0.414562	0.673559
430	N	0.264832	0.398246	0.967803
431	C	0.265567	0.369339	0.966502
432	C	0.265914	0.353219	0.006924
433	C	0.269044	0.800418	0.006846
434	C	0.304204	0.817337	0.006872
435	C	0.269328	0.74699	0.006833
436	C	0.269492	0.69371	0.006793
437	C	0.304606	0.712075	0.006829
438	C	0.322754	0.747169	0.006815
439	C	0.304957	0.764802	0.006858
440	H	0.317473	0.699347	0.006881
441	C	0.321731	0.799955	0.006881
442	H	0.317702	0.842774	0.006869
443	C	0.269843	0.970407	0.006843
444	C	0.305002	0.988792	0.006854
445	C	0.269858	0.52399	0.006843
446	C	0.30549	0.541973	0.006846
447	C	0.323138	0.577426	0.006826
448	C	0.304781	0.594183	0.006851
449	C	0.26969	0.577242	0.006835
450	C	0.322396	0.523713	0.006852
451	H	0.317513	0.619777	0.006886
452	H	0.318585	0.97694	0.006845
453	C	0.265908	0.869516	0.047306
454	N	0.265151	0.898415	0.046
455	C	0.266756	0.914562	0.006892
456	N	0.264833	0.898246	0.301137
457	C	0.265567	0.869337	0.299833
458	C	0.265915	0.85322	0.340258
459	C	0.269044	0.800418	0.34018
460	C	0.304204	0.817337	0.340207
461	C	0.269327	0.746987	0.340167
462	C	0.269492	0.69371	0.340126
463	C	0.304607	0.712075	0.340163
464	C	0.322754	0.747169	0.34015
465	C	0.304958	0.764802	0.34019
466	H	0.317473	0.699347	0.340214
467	C	0.321732	0.799955	0.340214
468	H	0.317702	0.842774	0.340204
469	C	0.269844	0.970407	0.340177
470	C	0.305003	0.988792	0.340187
471	C	0.269859	0.52399	0.340177
472	C	0.305491	0.541973	0.34018
473	C	0.323138	0.577426	0.34016
474	C	0.304781	0.594183	0.340184
475	C	0.26969	0.577242	0.34017
476	C	0.322396	0.523713	0.340187
477	H	0.317512	0.619774	0.340221
478	H	0.318585	0.97694	0.34018
479	C	0.265908	0.869516	0.38064
480	N	0.265151	0.898415	0.379333
481	C	0.266756	0.914562	0.340224
482	N	0.264834	0.898246	0.634471
483	C	0.265567	0.869337	0.633167
484	C	0.265915	0.85322	0.673593
485	C	0.269044	0.800418	0.673515
486	C	0.304204	0.817337	0.673539
487	C	0.269327	0.746987	0.673502
488	C	0.269492	0.69371	0.673461
489	C	0.304607	0.712075	0.673495
490	C	0.322754	0.747169	0.673482
491	C	0.304958	0.764802	0.673526
492	H	0.317473	0.699347	0.673549
493	C	0.321732	0.799955	0.673549
494	H	0.317702	0.842774	0.673536
495	C	0.269844	0.970408	0.673512
496	C	0.305003	0.988792	0.673522
497	C	0.269859	0.52399	0.673512
498	C	0.305491	0.541973	0.673512
499	C	0.323138	0.577426	0.673492
500	C	0.304781	0.594183	0.673519
501	C	0.26969	0.577242	0.673502
502	C	0.322396	0.523713	0.673519
503	H	0.317512	0.619774	0.673553
504	H	0.318585	0.97694	0.673512
505	C	0.265908	0.869516	0.713975
506	N	0.265151	0.898415	0.712668
507	C	0.266756	0.914562	0.673559
508	N	0.264833	0.898246	0.967803
509	C	0.265566	0.869337	0.966502
510	C	0.265914	0.85322	0.006924
511	C	0.492711	0.247413	0.340157
512	C	0.47472	0.265055	0.340163
513	C	0.439268	0.247245	0.340099
514	C	0.422519	0.212131	0.340126
515	C	0.439468	0.193987	0.340123
516	C	0.474895	0.211785	0.340153
517	C	0.492975	0.300221	0.34018
518	H	0.396925	0.19926	0.34017
519	C	0.493273	0.195007	0.340163
520	H	0.48103	0.313712	0.340163
521	H	0.481434	0.169574	0.34015
522	H	0.347165	0.313551	0.00688
523	H	0.347833	0.035657	0.006847
524	C	0.402377	0.261697	0.04729
525	N	0.372529	0.260535	0.046027
526	C	0.357743	0.261832	0.006985
527	N	0.372235	0.260045	0.30123
528	C	0.402061	0.26117	0.299845
529	C	0.418716	0.261814	0.340224
530	H	0.410568	0.25827	0.077806
531	H	0.410036	0.257422	0.269354
532	C	0.374431	0.114483	0.047252
533	N	0.403098	0.144345	0.045992
534	C	0.419159	0.158985	0.006895
535	N	0.402999	0.144449	0.301125
536	C	0.374326	0.114595	0.299845
537	C	0.35825	0.09797	0.340221
538	H	0.362793	0.106345	0.077766
539	H	0.362634	0.106531	0.269349
540	C	0.492711	0.247413	0.673492
541	C	0.474721	0.265055	0.673498
542	C	0.439267	0.247246	0.673431
543	C	0.422518	0.212131	0.673458
544	C	0.439468	0.193987	0.673455
545	C	0.474894	0.211785	0.673485
546	C	0.492975	0.300221	0.673512
547	H	0.396926	0.19926	0.673502
548	C	0.493272	0.195007	0.673495
549	H	0.48103	0.313712	0.673498
550	H	0.481435	0.169574	0.673482
551	H	0.347165	0.313551	0.340214
552	H	0.347832	0.035657	0.34018
553	C	0.402379	0.261697	0.380623
554	N	0.372529	0.260535	0.37936
555	C	0.357744	0.261832	0.340319
556	N	0.372235	0.260045	0.634566
557	C	0.40206	0.26117	0.633181
558	C	0.418718	0.261814	0.673556
559	H	0.410567	0.25827	0.41114
560	H	0.410038	0.257422	0.602688
561	C	0.37443	0.114483	0.380586
562	N	0.403099	0.144345	0.379326
563	C	0.419158	0.158985	0.340228
564	N	0.403001	0.144449	0.634458
565	C	0.374325	0.114595	0.633181
566	C	0.35825	0.09797	0.673556
567	H	0.362792	0.106345	0.411099
568	H	0.362633	0.106531	0.602684
569	C	0.49271	0.247413	0.006824
570	C	0.47472	0.265055	0.006831
571	C	0.439269	0.247246	0.006766
572	C	0.422518	0.212131	0.006793
573	C	0.439467	0.193987	0.00679
574	C	0.474895	0.211785	0.006819
575	C	0.492976	0.300221	0.006845
576	H	0.396925	0.19926	0.006836
577	C	0.493274	0.195007	0.006828
578	H	0.481031	0.313712	0.006831
579	H	0.481434	0.169574	0.006815
580	H	0.347165	0.313551	0.673546
581	H	0.347834	0.035657	0.673515
582	C	0.402378	0.261697	0.713958
583	N	0.372528	0.260535	0.712695
584	C	0.357744	0.261832	0.673654
585	N	0.372234	0.260045	0.967897
586	C	0.40206	0.26117	0.966512
587	C	0.418717	0.261814	0.006889
588	H	0.410569	0.25827	0.744475
589	H	0.410037	0.257422	0.936023
590	C	0.37443	0.114483	0.713921
591	N	0.403099	0.144345	0.712661
592	C	0.41916	0.158985	0.673563
593	N	0.403	0.144449	0.967793
594	C	0.374327	0.114595	0.966512
595	C	0.358249	0.09797	0.006887
596	H	0.362792	0.106345	0.744434
597	H	0.362635	0.106531	0.936016
598	C	0.492711	0.747413	0.340157
599	C	0.474721	0.765055	0.340163
600	C	0.439269	0.747246	0.340099
601	C	0.422518	0.71213	0.340126
602	C	0.439468	0.693987	0.340123
603	C	0.474895	0.711784	0.340153
604	C	0.492977	0.800222	0.34018
605	H	0.396926	0.69926	0.34017
606	C	0.493273	0.695007	0.340163
607	H	0.481029	0.813711	0.340163
608	H	0.481435	0.669574	0.34015
609	H	0.347166	0.813551	0.00688
610	H	0.347833	0.535657	0.006847
611	C	0.402378	0.761695	0.04729
612	N	0.372528	0.760533	0.046027
613	C	0.357744	0.761832	0.006985
614	N	0.372236	0.760046	0.30123
615	C	0.402061	0.761171	0.299845
616	C	0.418718	0.761815	0.340224
617	H	0.410568	0.758268	0.077806
618	H	0.410036	0.75742	0.269354
619	C	0.37443	0.614483	0.047252
620	N	0.403099	0.644346	0.045992
621	C	0.41916	0.658985	0.006895
622	N	0.403001	0.644448	0.301125
623	C	0.374327	0.614596	0.299845
624	C	0.35825	0.59797	0.340221
625	H	0.362792	0.606345	0.077766
626	H	0.362635	0.606532	0.269349
627	C	0.492711	0.747413	0.673492
628	C	0.474721	0.765055	0.673498
629	C	0.439269	0.747246	0.673431
630	C	0.422518	0.71213	0.673458
631	C	0.439468	0.693987	0.673455
632	C	0.474895	0.711784	0.673485
633	C	0.492977	0.800222	0.673512
634	H	0.396926	0.69926	0.673502
635	C	0.493273	0.695007	0.673495
636	H	0.481029	0.813711	0.673498
637	H	0.481435	0.669574	0.673482
638	H	0.347165	0.813549	0.340214
639	H	0.347833	0.535657	0.34018
640	C	0.402378	0.761695	0.380623
641	N	0.372528	0.760533	0.37936
642	C	0.357744	0.761832	0.340319
643	N	0.372236	0.760046	0.634566
644	C	0.402061	0.761171	0.633181
645	C	0.418718	0.761815	0.673556
646	H	0.410568	0.758268	0.41114
647	H	0.410037	0.75742	0.602688
648	C	0.37443	0.614483	0.380586
649	N	0.403099	0.644346	0.379326
650	C	0.41916	0.658985	0.340228
651	N	0.403001	0.644448	0.634458
652	C	0.374327	0.614596	0.633181
653	C	0.358251	0.59797	0.673556
654	H	0.362792	0.606345	0.411099
655	H	0.362635	0.606532	0.602684
656	C	0.492711	0.747413	0.006824
657	C	0.474721	0.765055	0.006831
658	C	0.439269	0.747246	0.006766
659	C	0.422518	0.71213	0.006793
660	C	0.439468	0.693987	0.00679
661	C	0.474895	0.711784	0.006819
662	C	0.492976	0.800221	0.006845
663	H	0.396926	0.69926	0.006836
664	C	0.493273	0.695007	0.006828
665	H	0.481029	0.813711	0.006831
666	H	0.481435	0.669574	0.006815
667	H	0.347165	0.813549	0.673546
668	H	0.347833	0.535657	0.673515
669	C	0.402378	0.761695	0.713958
670	N	0.372528	0.760533	0.712695
671	C	0.357744	0.761832	0.673654
672	N	0.372236	0.760046	0.967897
673	C	0.402061	0.761171	0.966512
674	C	0.418718	0.761815	0.006889
675	H	0.410568	0.758268	0.744475
676	H	0.410036	0.75742	0.936023
677	C	0.37443	0.614483	0.713921
678	N	0.403099	0.644346	0.712661
679	C	0.41916	0.658985	0.673563
680	N	0.403001	0.644448	0.967793
681	C	0.374327	0.614596	0.966512
682	C	0.35825	0.59797	0.006887
683	H	0.362792	0.606345	0.744434
684	H	0.362635	0.606532	0.936016
685	C	0.528451	0.265353	0.340163
686	C	0.546284	0.300982	0.340174
687	C	0.581722	0.318742	0.34016
688	C	0.598639	0.300559	0.340187
689	C	0.581861	0.265455	0.340147
690	C	0.546421	0.247691	0.340167
691	C	0.527897	0.317754	0.34018
692	C	0.528179	0.212532	0.340167
693	H	0.624234	0.313384	0.340241
694	C	0.99271	0.247413	0.340157
695	C	0.974721	0.265055	0.340163
696	C	0.939269	0.247245	0.340099
697	C	0.922518	0.212131	0.340126
698	C	0.939467	0.193987	0.340123
699	C	0.974896	0.211785	0.340153
700	C	0.992977	0.300221	0.34018
701	H	0.896926	0.19926	0.34017
702	C	0.993272	0.195007	0.340163
703	H	0.981029	0.313712	0.340163
704	H	0.53975	0.343189	0.340177
705	H	0.981435	0.169574	0.34015
706	H	0.540116	0.199033	0.34016
707	C	0.751386	0.264786	0.006832
708	C	0.715757	0.24699	0.006823
709	C	0.697991	0.264662	0.006793
710	C	0.716169	0.29976	0.006816
711	C	0.751275	0.318093	0.006803
712	C	0.769043	0.30042	0.006846
713	C	0.698986	0.211831	0.006818
714	C	0.804205	0.317338	0.006872
715	H	0.703339	0.312525	0.006861
716	C	0.769328	0.246989	0.006833
717	C	0.751686	0.211356	0.006818
718	C	0.769493	0.193712	0.006793
719	C	0.804607	0.212075	0.006829
720	C	0.822753	0.247169	0.006815
721	C	0.804958	0.264801	0.006858
722	C	0.716521	0.194444	0.006813
723	H	0.817474	0.199349	0.006881
724	C	0.821732	0.299957	0.006881
725	H	0.703029	0.169007	0.006796
726	H	0.673553	0.198246	0.006803
727	H	0.847166	0.313551	0.00688
728	H	0.817703	0.342774	0.006869
729	C	0.752055	0.488251	0.006839
730	C	0.769844	0.470407	0.006843
731	C	0.752166	0.434969	0.006804
732	C	0.717064	0.418058	0.006805
733	C	0.698745	0.434845	0.0068
734	C	0.716423	0.470285	0.006835
735	C	0.805002	0.488794	0.006854
736	C	0.699512	0.488535	0.006844
737	H	0.704295	0.392464	0.006833
738	C	0.769857	0.02399	0.006843
739	C	0.805491	0.041974	0.006846
740	C	0.823137	0.077425	0.006826
741	C	0.804781	0.094182	0.006851
742	C	0.76969	0.077241	0.006835
743	C	0.752052	0.041814	0.006848
744	C	0.822396	0.023714	0.006852
745	H	0.817513	0.119776	0.006886
746	C	0.716899	0.023442	0.006851
747	H	0.847832	0.035657	0.006847
748	H	0.818585	0.47694	0.006845
749	H	0.703309	0.035287	0.006845
750	H	0.674077	0.476604	0.006832
751	C	0.618658	0.250834	0.047294
752	N	0.648342	0.25166	0.04592
753	C	0.663022	0.250095	0.00689
754	N	0.648482	0.251972	0.301218
755	C	0.618808	0.251168	0.299856
756	C	0.602338	0.250807	0.340265
757	H	0.610606	0.254417	0.077823
758	H	0.610854	0.254943	0.269365
759	C	0.765909	0.369517	0.047306
760	N	0.765151	0.398417	0.046
761	C	0.766755	0.414562	0.006892
762	N	0.764833	0.398246	0.301137
763	C	0.765567	0.369336	0.299833
764	C	0.765914	0.353219	0.340258
765	H	0.762326	0.357867	0.077824
766	H	0.761789	0.357595	0.26935
767	C	0.647338	0.398029	0.047234
768	N	0.61845	0.36837	0.045917
769	C	0.602139	0.353712	0.006923
770	N	0.618525	0.368239	0.301234
771	C	0.647421	0.397882	0.299854
772	C	0.663625	0.414392	0.340204
773	H	0.658995	0.406065	0.077754
774	H	0.659117	0.405822	0.269339
775	C	0.902379	0.261697	0.04729
776	N	0.872528	0.260535	0.046027
777	C	0.857744	0.261832	0.006985
778	N	0.872235	0.260045	0.30123
779	C	0.90206	0.26117	0.299845
780	C	0.918718	0.261814	0.340224
781	H	0.910569	0.25827	0.077806
782	H	0.910038	0.257422	0.269354
783	C	0.755255	0.142423	0.047231
784	N	0.756461	0.113765	0.045931
785	C	0.755045	0.097575	0.006927
786	N	0.756657	0.113836	0.301227
787	C	0.755467	0.142502	0.299864
788	C	0.754922	0.158598	0.340207
789	H	0.758767	0.15406	0.077748
790	H	0.759104	0.154173	0.269349
791	C	0.87443	0.114483	0.047252
792	N	0.903099	0.144345	0.045992
793	C	0.91916	0.158985	0.006895
794	N	0.903001	0.144449	0.301125
795	C	0.874327	0.114595	0.299845
796	C	0.858249	0.09797	0.340221
797	H	0.862792	0.106345	0.077766
798	H	0.862635	0.106531	0.269349
799	C	0.52845	0.265353	0.673498
800	C	0.546286	0.300982	0.673505
801	C	0.581722	0.318742	0.673495
802	C	0.598639	0.300559	0.673522
803	C	0.58186	0.265455	0.673478
804	C	0.54642	0.247691	0.673502
805	C	0.527898	0.317754	0.673515
806	C	0.528179	0.212532	0.673502
807	H	0.624233	0.313384	0.673573
808	C	0.992712	0.247413	0.673492
809	C	0.97472	0.265055	0.673498
810	C	0.939269	0.247246	0.673431
811	C	0.92252	0.212131	0.673458
812	C	0.939469	0.193987	0.673455
813	C	0.974896	0.211785	0.673485
814	C	0.992976	0.300221	0.673512
815	H	0.896926	0.19926	0.673502
816	C	0.993274	0.195007	0.673495
817	H	0.981031	0.313712	0.673498
818	H	0.53975	0.343189	0.673512
819	H	0.981434	0.169574	0.673482
820	H	0.540116	0.199033	0.673495
821	C	0.751385	0.264786	0.340167
822	C	0.715757	0.24699	0.340157
823	C	0.697992	0.264662	0.340126
824	C	0.716168	0.29976	0.34015
825	C	0.751274	0.318093	0.340133
826	C	0.769045	0.30042	0.34018
827	C	0.698988	0.211831	0.34015
828	C	0.804205	0.317339	0.340207
829	H	0.703338	0.312525	0.340194
830	C	0.769327	0.246988	0.340167
831	C	0.751685	0.211356	0.340153
832	C	0.769492	0.193711	0.340126
833	C	0.804607	0.212075	0.340163
834	C	0.822752	0.247168	0.34015
835	C	0.804957	0.264801	0.34019
836	C	0.71652	0.194444	0.340147
837	H	0.817473	0.199349	0.340214
838	C	0.821733	0.299957	0.340214
839	H	0.70303	0.169007	0.34013
840	H	0.673552	0.198246	0.340133
841	H	0.847165	0.313551	0.340214
842	H	0.817702	0.342774	0.340204
843	C	0.752056	0.488251	0.340174
844	C	0.769843	0.470407	0.340177
845	C	0.752167	0.434969	0.34014
846	C	0.717066	0.418058	0.34014
847	C	0.698746	0.434845	0.340133
848	C	0.716425	0.470285	0.34017
849	C	0.805004	0.488794	0.340187
850	C	0.699513	0.488535	0.340177
851	H	0.704294	0.392464	0.340167
852	C	0.769859	0.02399	0.340177
853	C	0.805491	0.041973	0.34018
854	C	0.823137	0.077425	0.34016
855	C	0.80478	0.094182	0.340184
856	C	0.76969	0.077241	0.34017
857	C	0.752053	0.041813	0.34018
858	C	0.822395	0.023715	0.340187
859	H	0.817513	0.119776	0.340221
860	C	0.716898	0.023442	0.340184
861	H	0.847834	0.035657	0.34018
862	H	0.818585	0.47694	0.34018
863	H	0.703308	0.035287	0.34018
864	H	0.674075	0.476601	0.340167
865	C	0.618657	0.250834	0.380627
866	N	0.648344	0.25166	0.379255
867	C	0.663021	0.250095	0.340224
868	N	0.648481	0.251972	0.634552
869	C	0.61881	0.251168	0.633191
870	C	0.602337	0.250807	0.6736
871	H	0.610606	0.254417	0.411156
872	H	0.610854	0.254943	0.602698
873	C	0.765908	0.369517	0.38064
874	N	0.765152	0.398417	0.379333
875	C	0.766756	0.414562	0.340224
876	N	0.764833	0.398246	0.634471
877	C	0.765566	0.369336	0.633167
878	C	0.765914	0.353219	0.673593
879	H	0.762327	0.357867	0.411156
880	H	0.761788	0.357595	0.602684
881	C	0.64734	0.398029	0.380569
882	N	0.618449	0.36837	0.379252
883	C	0.602138	0.353712	0.340258
884	N	0.618527	0.368239	0.634569
885	C	0.647423	0.397882	0.633187
886	C	0.663625	0.414392	0.673536
887	H	0.658997	0.406065	0.411089
888	H	0.659119	0.405822	0.602674
889	C	0.902378	0.261697	0.380623
890	N	0.87253	0.260535	0.37936
891	C	0.857744	0.261832	0.340319
892	N	0.872236	0.260045	0.634566
893	C	0.902061	0.26117	0.633181
894	C	0.918717	0.261814	0.673556
895	H	0.910569	0.25827	0.41114
896	H	0.910037	0.257422	0.602688
897	C	0.755254	0.142423	0.380566
898	N	0.75646	0.113764	0.379265
899	C	0.755046	0.097574	0.340261
900	N	0.756656	0.113836	0.634562
901	C	0.755467	0.142502	0.633197
902	C	0.754924	0.158598	0.673542
903	H	0.758766	0.15406	0.411082
904	H	0.759106	0.154173	0.602684
905	C	0.874429	0.114483	0.380586
906	N	0.903098	0.144345	0.379326
907	C	0.91916	0.158985	0.340228
908	N	0.903	0.144449	0.634458
909	C	0.874327	0.114595	0.633181
910	C	0.858251	0.09797	0.673556
911	H	0.862793	0.106345	0.411099
912	H	0.862634	0.106531	0.602684
913	C	0.528449	0.265353	0.00683
914	C	0.546285	0.300982	0.006839
915	C	0.581723	0.318742	0.006827
916	C	0.59864	0.300559	0.006854
917	C	0.581862	0.265455	0.006811
918	C	0.546419	0.247691	0.006834
919	C	0.527897	0.317754	0.006848
920	C	0.52818	0.212532	0.006835
921	H	0.624234	0.313384	0.006906
922	C	0.992711	0.247413	0.006824
923	C	0.974722	0.265055	0.006831
924	C	0.939268	0.247246	0.006766
925	C	0.922519	0.212131	0.006793
926	C	0.939468	0.193987	0.00679
927	C	0.974895	0.211785	0.006819
928	C	0.992975	0.300221	0.006845
929	H	0.896927	0.19926	0.006836
930	C	0.993273	0.195007	0.006828
931	H	0.98103	0.313712	0.006831
932	H	0.539749	0.343189	0.006845
933	H	0.981435	0.169574	0.006815
934	H	0.540117	0.199033	0.006826
935	C	0.751387	0.264786	0.673498
936	C	0.715756	0.24699	0.673492
937	C	0.697991	0.264662	0.673461
938	C	0.716168	0.29976	0.673485
939	C	0.751275	0.318093	0.673468
940	C	0.769044	0.30042	0.673515
941	C	0.698987	0.211831	0.673485
942	C	0.804206	0.317339	0.673539
943	H	0.70334	0.312525	0.673529
944	C	0.769328	0.246988	0.673502
945	C	0.751684	0.211356	0.673485
946	C	0.769493	0.193711	0.673461
947	C	0.804606	0.212075	0.673495
948	C	0.822754	0.247168	0.673482
949	C	0.804956	0.264801	0.673526
950	C	0.71652	0.194444	0.673482
951	H	0.817473	0.199348	0.673549
952	C	0.821733	0.299957	0.673549
953	H	0.703029	0.169007	0.673461
954	H	0.673553	0.198246	0.673468
955	H	0.847167	0.313551	0.673546
956	H	0.817702	0.342774	0.673536
957	C	0.752056	0.488251	0.673505
958	C	0.769842	0.470407	0.673512
959	C	0.752167	0.434969	0.673471
960	C	0.717065	0.418058	0.673471
961	C	0.698745	0.434845	0.673465
962	C	0.716424	0.470285	0.673502
963	C	0.805003	0.488794	0.673522
964	C	0.699513	0.488535	0.673512
965	H	0.704296	0.392464	0.673502
966	C	0.769858	0.02399	0.673512
967	C	0.80549	0.041973	0.673512
968	C	0.823138	0.077425	0.673492
969	C	0.80478	0.094182	0.673519
970	C	0.769689	0.077241	0.673502
971	C	0.752053	0.041813	0.673515
972	C	0.822397	0.023714	0.673519
973	H	0.817512	0.119776	0.673553
974	C	0.716897	0.023442	0.673519
975	H	0.847833	0.035657	0.673515
976	H	0.818584	0.47694	0.673512
977	H	0.70331	0.035287	0.673512
978	H	0.674075	0.476601	0.673498
979	C	0.618659	0.250834	0.713962
980	N	0.648343	0.25166	0.712587
981	C	0.66302	0.250095	0.673559
982	N	0.64848	0.251972	0.967884
983	C	0.618809	0.251168	0.966522
984	C	0.602339	0.250807	0.006933
985	H	0.610607	0.254417	0.744492
986	H	0.610853	0.254944	0.936033
987	C	0.765909	0.369515	0.713975
988	N	0.765152	0.398417	0.712668
989	C	0.766756	0.414562	0.673559
990	N	0.764832	0.398246	0.967803
991	C	0.765567	0.369339	0.966502
992	C	0.765913	0.353219	0.006924
993	H	0.762327	0.357867	0.744492
994	H	0.761787	0.357595	0.93602
995	C	0.647339	0.398029	0.713901
996	N	0.618449	0.36837	0.712583
997	C	0.602138	0.353712	0.67359
998	N	0.618526	0.368239	0.967901
999	C	0.647422	0.397882	0.966522
1000	C	0.663624	0.414392	0.00687
1001	H	0.658996	0.406065	0.744421
1002	H	0.659118	0.405822	0.936006
1003	C	0.902378	0.261697	0.713958
1004	N	0.872529	0.260535	0.712695
1005	C	0.857743	0.261832	0.673654
1006	N	0.872235	0.260045	0.967897
1007	C	0.902061	0.26117	0.966512
1008	C	0.918718	0.261814	0.006889
1009	H	0.910568	0.25827	0.744475
1010	H	0.910036	0.257422	0.936023
1011	C	0.755254	0.142423	0.713898
1012	N	0.756462	0.113764	0.7126
1013	C	0.755046	0.097574	0.673596
1014	N	0.756656	0.113836	0.967894
1015	C	0.755466	0.142502	0.966532
1016	C	0.754923	0.158598	0.006873
1017	H	0.758768	0.15406	0.744417
1018	H	0.759105	0.154173	0.936016
1019	C	0.874431	0.114483	0.713921
1020	N	0.903098	0.144345	0.712661
1021	C	0.919159	0.158985	0.673563
1022	N	0.903002	0.144449	0.967793
1023	C	0.874326	0.114595	0.966512
1024	C	0.85825	0.09797	0.006887
1025	H	0.862793	0.106345	0.744434
1026	H	0.862634	0.106531	0.936016
1027	C	0.528449	0.765352	0.340163
1028	C	0.546286	0.800983	0.340174
1029	C	0.581723	0.818743	0.34016
1030	C	0.59864	0.80056	0.340187
1031	C	0.581862	0.765456	0.340147
1032	C	0.546421	0.747691	0.340167
1033	C	0.527897	0.817752	0.34018
1034	C	0.52818	0.712533	0.340167
1035	H	0.624234	0.813385	0.340241
1036	C	0.992712	0.747413	0.340157
1037	C	0.974721	0.765055	0.340163
1038	C	0.939269	0.747246	0.340099
1039	C	0.922517	0.71213	0.340126
1040	C	0.939469	0.693987	0.340123
1041	C	0.974895	0.711784	0.340153
1042	C	0.992977	0.800222	0.34018
1043	H	0.896926	0.69926	0.34017
1044	C	0.993274	0.695007	0.340163
1045	H	0.98103	0.813711	0.340163
1046	H	0.539749	0.843187	0.340177
1047	H	0.981435	0.669574	0.34015
1048	H	0.540116	0.699031	0.34016
1049	C	0.751386	0.764787	0.006832
1050	C	0.715757	0.74699	0.006823
1051	C	0.697993	0.764662	0.006793
1052	C	0.716169	0.799761	0.006816
1053	C	0.751275	0.818093	0.006803
1054	C	0.769045	0.800418	0.006846
1055	C	0.698988	0.711831	0.006818
1056	C	0.804204	0.817337	0.006872
1057	H	0.703339	0.812526	0.006861
1058	C	0.769328	0.74699	0.006833
1059	C	0.751686	0.711356	0.006818
1060	C	0.769492	0.69371	0.006793
1061	C	0.804607	0.712075	0.006829
1062	C	0.822753	0.747169	0.006815
1063	C	0.804958	0.764802	0.006858
1064	C	0.716521	0.694444	0.006813
1065	H	0.817473	0.699347	0.006881
1066	C	0.821731	0.799955	0.006881
1067	H	0.703031	0.669007	0.006796
1068	H	0.673552	0.698245	0.006803
1069	H	0.847166	0.813551	0.00688
1070	H	0.817703	0.842774	0.006869
1071	C	0.752056	0.988249	0.006839
1072	C	0.769844	0.970407	0.006843
1073	C	0.752165	0.934968	0.006804
1074	C	0.717065	0.918057	0.006805
1075	C	0.698744	0.934843	0.0068
1076	C	0.716424	0.970286	0.006835
1077	C	0.805004	0.988792	0.006854
1078	C	0.699513	0.988536	0.006844
1079	H	0.704295	0.892465	0.006833
1080	C	0.769859	0.52399	0.006843
1081	C	0.805491	0.541973	0.006846
1082	C	0.823138	0.577426	0.006826
1083	C	0.804781	0.594183	0.006851
1084	C	0.76969	0.577242	0.006835
1085	C	0.752052	0.541814	0.006848
1086	C	0.822395	0.523713	0.006852
1087	H	0.817514	0.619777	0.006886
1088	C	0.716899	0.523442	0.006851
1089	H	0.847834	0.535657	0.006847
1090	H	0.818586	0.97694	0.006845
1091	H	0.703309	0.535286	0.006845
1092	H	0.674076	0.976602	0.006832
1093	C	0.618658	0.750834	0.047294
1094	N	0.648345	0.751661	0.04592
1095	C	0.663022	0.750095	0.00689
1096	N	0.648481	0.75197	0.301218
1097	C	0.618807	0.751166	0.299856
1098	C	0.602337	0.750805	0.340265
1099	H	0.610607	0.754418	0.077823
1100	H	0.610855	0.754944	0.269365
1101	C	0.765908	0.869516	0.047306
1102	N	0.765152	0.898415	0.046
1103	C	0.766757	0.914562	0.006892
1104	N	0.764833	0.898246	0.301137
1105	C	0.765567	0.869337	0.299833
1106	C	0.765915	0.85322	0.340258
1107	H	0.762327	0.857865	0.077824
1108	H	0.761789	0.857595	0.26935
1109	C	0.647338	0.898027	0.047234
1110	N	0.61845	0.868371	0.045917
1111	C	0.602139	0.853712	0.006923
1112	N	0.618525	0.868237	0.301234
1113	C	0.647423	0.897883	0.299854
1114	C	0.663624	0.914391	0.340204
1115	H	0.658997	0.906065	0.077754
1116	H	0.659118	0.905822	0.269339
1117	C	0.902378	0.761695	0.04729
1118	N	0.872529	0.760533	0.046027
1119	C	0.857744	0.761832	0.006985
1120	N	0.872237	0.760046	0.30123
1121	C	0.902062	0.761171	0.299845
1122	C	0.918718	0.761815	0.340224
1123	H	0.910568	0.758268	0.077806
1124	H	0.910037	0.75742	0.269354
1125	C	0.755255	0.642424	0.047231
1126	N	0.756461	0.613764	0.045931
1127	C	0.755047	0.597575	0.006927
1128	N	0.756657	0.613837	0.301227
1129	C	0.755467	0.642502	0.299864
1130	C	0.754922	0.658596	0.340207
1131	H	0.758767	0.654059	0.077748
1132	H	0.759106	0.654172	0.269349
1133	C	0.87443	0.614483	0.047252
1134	N	0.903099	0.644346	0.045992
1135	C	0.91916	0.658985	0.006895
1136	N	0.903	0.644448	0.301125
1137	C	0.874327	0.614596	0.299845
1138	C	0.858252	0.59797	0.340221
1139	H	0.862791	0.606345	0.077766
1140	H	0.862635	0.606532	0.269349
1141	C	0.528449	0.765352	0.673498
1142	C	0.546286	0.800983	0.673505
1143	C	0.581723	0.818743	0.673495
1144	C	0.59864	0.80056	0.673522
1145	C	0.581862	0.765456	0.673478
1146	C	0.546421	0.747691	0.673502
1147	C	0.527897	0.817752	0.673515
1148	C	0.52818	0.712533	0.673502
1149	H	0.624234	0.813385	0.673573
1150	C	0.992712	0.747413	0.673492
1151	C	0.974721	0.765055	0.673498
1152	C	0.939269	0.747246	0.673431
1153	C	0.922519	0.71213	0.673458
1154	C	0.939469	0.693987	0.673455
1155	C	0.974895	0.711784	0.673485
1156	C	0.992976	0.800222	0.673512
1157	H	0.896925	0.69926	0.673502
1158	C	0.993274	0.695007	0.673495
1159	H	0.98103	0.813711	0.673498
1160	H	0.539749	0.843187	0.673512
1161	H	0.981434	0.669574	0.673482
1162	H	0.540116	0.699031	0.673495
1163	C	0.751388	0.764787	0.340167
1164	C	0.715757	0.74699	0.340157
1165	C	0.697992	0.764662	0.340126
1166	C	0.716169	0.799761	0.34015
1167	C	0.751274	0.818093	0.340133
1168	C	0.769044	0.800418	0.34018
1169	C	0.698988	0.711831	0.34015
1170	C	0.804204	0.817337	0.340207
1171	H	0.703341	0.812526	0.340194
1172	C	0.769328	0.746987	0.340167
1173	C	0.751685	0.711356	0.340153
1174	C	0.769493	0.69371	0.340126
1175	C	0.804606	0.712075	0.340163
1176	C	0.822755	0.747169	0.34015
1177	C	0.804957	0.764802	0.34019
1178	C	0.716521	0.694444	0.340147
1179	H	0.817473	0.699347	0.340214
1180	C	0.821732	0.799955	0.340214
1181	H	0.70303	0.669007	0.34013
1182	H	0.673553	0.698245	0.340133
1183	H	0.847164	0.813549	0.340214
1184	H	0.817703	0.842774	0.340204
1185	C	0.752055	0.988249	0.340174
1186	C	0.769843	0.970407	0.340177
1187	C	0.752166	0.934968	0.34014
1188	C	0.717065	0.918057	0.34014
1189	C	0.698745	0.934843	0.340133
1190	C	0.716425	0.970286	0.34017
1191	C	0.805003	0.988792	0.340187
1192	C	0.699512	0.988533	0.340177
1193	H	0.704294	0.892465	0.340167
1194	C	0.769859	0.52399	0.340177
1195	C	0.805491	0.541973	0.34018
1196	C	0.823139	0.577426	0.34016
1197	C	0.804781	0.594183	0.340184
1198	C	0.76969	0.577242	0.34017
1199	C	0.752054	0.541814	0.34018
1200	C	0.822397	0.523713	0.340187
1201	H	0.817512	0.619774	0.340221
1202	C	0.716898	0.523442	0.340184
1203	H	0.847833	0.535657	0.34018
1204	H	0.818585	0.97694	0.34018
1205	H	0.70331	0.535286	0.34018
1206	H	0.674076	0.976602	0.340167
1207	C	0.61866	0.750834	0.380627
1208	N	0.648344	0.751661	0.379255
1209	C	0.663021	0.750096	0.340224
1210	N	0.64848	0.75197	0.634552
1211	C	0.618809	0.751166	0.633191
1212	C	0.602337	0.750805	0.6736
1213	H	0.610608	0.754418	0.411156
1214	H	0.610854	0.754944	0.602698
1215	C	0.765907	0.869516	0.38064
1216	N	0.765151	0.898415	0.379333
1217	C	0.766757	0.914562	0.340224
1218	N	0.764833	0.898246	0.634471
1219	C	0.765567	0.869337	0.633167
1220	C	0.765914	0.85322	0.673593
1221	H	0.762326	0.857866	0.411156
1222	H	0.761788	0.857595	0.602684
1223	C	0.647339	0.898027	0.380569
1224	N	0.61845	0.868371	0.379252
1225	C	0.602139	0.853712	0.340258
1226	N	0.618525	0.868237	0.634569
1227	C	0.647423	0.897883	0.633187
1228	C	0.663624	0.914391	0.673536
1229	H	0.658997	0.906065	0.411089
1230	H	0.659118	0.905822	0.602674
1231	C	0.902377	0.761695	0.380623
1232	N	0.872529	0.760533	0.37936
1233	C	0.857744	0.761832	0.340319
1234	N	0.872236	0.760046	0.634566
1235	C	0.902062	0.761171	0.633181
1236	C	0.918717	0.761815	0.673556
1237	H	0.910568	0.758268	0.41114
1238	H	0.910036	0.75742	0.602688
1239	C	0.755255	0.642424	0.380566
1240	N	0.756462	0.613764	0.379265
1241	C	0.755046	0.597575	0.340261
1242	N	0.756657	0.613837	0.634562
1243	C	0.755467	0.642502	0.633197
1244	C	0.754923	0.658596	0.673542
1245	H	0.758768	0.654059	0.411082
1246	H	0.759105	0.654172	0.602684
1247	C	0.874431	0.614483	0.380586
1248	N	0.903099	0.644346	0.379326
1249	C	0.91916	0.658985	0.340228
1250	N	0.903002	0.644448	0.634458
1251	C	0.874327	0.614596	0.633181
1252	C	0.858251	0.59797	0.673556
1253	H	0.862793	0.606345	0.411099
1254	H	0.862635	0.606532	0.602684
1255	C	0.528449	0.765352	0.00683
1256	C	0.546286	0.800983	0.006839
1257	C	0.581723	0.818743	0.006827
1258	C	0.59864	0.80056	0.006854
1259	C	0.581862	0.765456	0.006811
1260	C	0.54642	0.747691	0.006834
1261	C	0.527897	0.817752	0.006848
1262	C	0.52818	0.712533	0.006835
1263	H	0.624235	0.813385	0.006906
1264	C	0.992711	0.747413	0.006824
1265	C	0.974722	0.765055	0.006831
1266	C	0.939268	0.747246	0.006766
1267	C	0.922518	0.71213	0.006793
1268	C	0.939468	0.693987	0.00679
1269	C	0.974896	0.711784	0.006819
1270	C	0.992977	0.800221	0.006845
1271	H	0.896927	0.69926	0.006836
1272	C	0.993273	0.695007	0.006828
1273	H	0.981029	0.813711	0.006831
1274	H	0.539749	0.843187	0.006845
1275	H	0.981436	0.669574	0.006815
1276	H	0.540116	0.699031	0.006826
1277	C	0.751387	0.764787	0.673498
1278	C	0.715758	0.74699	0.673492
1279	C	0.697991	0.764662	0.673461
1280	C	0.716168	0.799761	0.673485
1281	C	0.751276	0.818093	0.673468
1282	C	0.769044	0.800418	0.673515
1283	C	0.698987	0.711831	0.673485
1284	C	0.804205	0.817337	0.673539
1285	H	0.70334	0.812526	0.673529
1286	C	0.769328	0.746987	0.673502
1287	C	0.751686	0.711356	0.673485
1288	C	0.769493	0.69371	0.673461
1289	C	0.804606	0.712075	0.673495
1290	C	0.822754	0.747169	0.673482
1291	C	0.804959	0.764802	0.673526
1292	C	0.716522	0.694444	0.673482
1293	H	0.817474	0.699347	0.673549
1294	C	0.821732	0.799955	0.673549
1295	H	0.70303	0.669007	0.673461
1296	H	0.673553	0.698245	0.673468
1297	H	0.847166	0.813549	0.673546
1298	H	0.817702	0.842774	0.673536
1299	C	0.752055	0.988249	0.673505
1300	C	0.769845	0.970408	0.673512
1301	C	0.752166	0.934968	0.673471
1302	C	0.717064	0.918057	0.673471
1303	C	0.698744	0.934843	0.673465
1304	C	0.716425	0.970286	0.673502
1305	C	0.805002	0.988792	0.673522
1306	C	0.699512	0.988533	0.673512
1307	H	0.704296	0.892465	0.673502
1308	C	0.769858	0.52399	0.673512
1309	C	0.80549	0.541973	0.673512
1310	C	0.823139	0.577426	0.673492
1311	C	0.804782	0.594183	0.673519
1312	C	0.769691	0.577242	0.673502
1313	C	0.752053	0.541814	0.673515
1314	C	0.822396	0.523713	0.673519
1315	H	0.817512	0.619774	0.673553
1316	C	0.7169	0.523442	0.673519
1317	H	0.847833	0.535657	0.673515
1318	H	0.818587	0.97694	0.673512
1319	H	0.70331	0.535286	0.673512
1320	H	0.674076	0.976602	0.673498
1321	C	0.618659	0.750834	0.713962
1322	N	0.648344	0.751661	0.712587
1323	C	0.663021	0.750096	0.673559
1324	N	0.648482	0.75197	0.967884
1325	C	0.618808	0.751166	0.966522
1326	C	0.602338	0.750805	0.006933
1327	H	0.610608	0.754418	0.744492
1328	H	0.610854	0.754944	0.936033
1329	C	0.765909	0.869516	0.713975
1330	N	0.765151	0.898415	0.712668
1331	C	0.766756	0.914562	0.673559
1332	N	0.764834	0.898246	0.967803
1333	C	0.765566	0.869337	0.966502
1334	C	0.765915	0.85322	0.006924
1335	H	0.762326	0.857866	0.744492
1336	H	0.761788	0.857595	0.93602
1337	C	0.647339	0.898027	0.713901
1338	N	0.61845	0.868371	0.712583
1339	C	0.602139	0.853712	0.67359
1340	N	0.618525	0.868237	0.967901
1341	C	0.647422	0.897883	0.966522
1342	C	0.663624	0.914391	0.00687
1343	H	0.658997	0.906065	0.744421
1344	H	0.659118	0.905822	0.936006
1345	C	0.902379	0.761695	0.713958
1346	N	0.872528	0.760533	0.712695
1347	C	0.857745	0.761832	0.673654
1348	N	0.872236	0.760046	0.967897
1349	C	0.902061	0.761171	0.966512
1350	C	0.918719	0.761815	0.006889
1351	H	0.910567	0.758268	0.744475
1352	H	0.910038	0.75742	0.936023
1353	C	0.755254	0.642424	0.713898
1354	N	0.756462	0.613764	0.7126
1355	C	0.755046	0.597575	0.673596
1356	N	0.756658	0.613837	0.967894
1357	C	0.755468	0.642502	0.966532
1358	C	0.754923	0.658599	0.006873
1359	H	0.758768	0.654059	0.744417
1360	H	0.759104	0.654172	0.936016
1361	C	0.874431	0.614483	0.713921
1362	N	0.9031	0.644346	0.712661
1363	C	0.919159	0.658985	0.673563
1364	N	0.903001	0.644448	0.967793
1365	C	0.874326	0.614596	0.966512
1366	C	0.85825	0.59797	0.006887
1367	H	0.862792	0.606345	0.744434
1368	H	0.862634	0.606532	0.936016
