data_C396H288N144O72_2018-02-15_10:32:45
#******************************************
#
# CIF file created by Zeo++
# Zeo++ is an open source package to
# analyze microporous materials
#
#*******************************************

_cell_length_a		43.6214   
_cell_length_b		43.6214   
_cell_length_c		30.1136   
_cell_angle_alpha		90   
_cell_angle_beta		90   
_cell_angle_gamma		120   

_symmetry_space_group_name_H-M		'P1'
_symmetry_Int_Tables_number		1
_symmetry_cell_setting		Monoclinic

loop_
_symmetry_equiv_pos_as_xyz
'+x,+y,+z'

loop_
_atom_site_label
_atom_site_type_symbol
_atom_site_fract_x
_atom_site_fract_y
_atom_site_fract_z
1	C	0.17603	0.368753	0.958608
2	C	0.139476	0.343259	0.958133
3	C	0.126508	0.306324	0.958512
4	C	0.152013	0.295273	0.958103
5	C	0.188947	0.319239	0.291886
6	C	0.200009	0.355801	0.95811
7	H	0.143197	0.268878	0.960641
8	H	0.226395	0.37337	0.960783
9	H	0.121895	0.352071	0.96069
10	C	0.187373	0.405246	0.964865
11	C	0.214101	0.307902	0.298147
12	C	0.090015	0.281164	0.964725
13	O	0.248207	0.333115	0.972894
14	O	0.16216	0.414132	0.972984
15	O	0.08112	0.247056	0.972791
16	C	0.319345	0.127693	0.045138
17	C	0.355633	0.153953	0.045358
18	C	0.367612	0.190716	0.045167
19	C	0.341344	0.200737	0.045346
20	C	0.304579	0.175956	0.378517
21	C	0.294557	0.139667	0.045359
22	H	0.349494	0.226994	0.042741
23	H	0.268299	0.121564	0.042755
24	H	0.373741	0.145805	0.042718
25	C	0.308944	0.091307	0.040066
26	C	0.278595	0.186353	0.373423
27	C	0.40399	0.216702	0.040052
28	O	0.244846	0.160745	0.031046
29	O	0.334549	0.083169	0.03099
30	O	0.412123	0.25044	0.030958
31	C	0.226154	0.260627	0.316755
32	N	0.254678	0.281058	0.009455
33	C	0.274863	0.269995	0.030695
34	C	0.265607	0.233943	0.025774
35	N	0.236804	0.213396	0.333342
36	C	0.216734	0.224773	0.312771
37	H	0.195474	0.207361	0.294242
38	C	0.304911	0.296413	0.05753
39	H	0.30625	0.322098	0.057221
40	H	0.329763	0.299987	0.044248
41	H	0.301931	0.28745	0.091914
42	N	0.285428	0.220476	0.042887
43	H	0.30699	0.23712	0.058003
44	N	0.206376	0.273426	0.297971
45	H	0.184599	0.256074	0.283608
46	C	0.234657	0.464586	0.316753
47	N	0.214236	0.472678	0.009474
48	C	0.225302	0.003929	0.030708
49	C	0.261351	0.030727	0.025765
50	N	0.281891	0.02247	0.333318
51	C	0.270508	0.49102	0.312753
52	H	0.287913	0.487168	0.294215
53	C	0.198891	0.007552	0.057567
54	H	0.173215	0.98321	0.057278
55	H	0.195308	0.02883	0.044295
56	H	0.207875	0.013544	0.091949
57	N	0.274821	0.064018	0.042871
58	H	0.25818	0.068935	0.057995
59	N	0.221848	0.432	0.297991
60	H	0.239193	0.427572	0.28361
61	C	0.03069	0.269125	0.316658
62	N	0.022601	0.240605	0.009364
63	C	0.491359	0.220426	0.030616
64	C	0.464565	0.22969	0.02571
65	N	0.472815	0.258481	0.333259
66	C	0.004256	0.278543	0.31267
67	H	0.008101	0.299796	0.294131
68	C	0.487731	0.190384	0.057462
69	H	0.512082	0.189043	0.057141
70	H	0.46645	0.165533	0.044197
71	H	0.481766	0.193377	0.091845
72	N	0.431282	0.20987	0.042837
73	H	0.426371	0.188316	0.057969
74	N	0.063266	0.28889	0.297866
75	H	0.067697	0.310671	0.283502
76	C	0.17603	0.368753	0.291944
77	C	0.139476	0.343259	0.291468
78	C	0.126508	0.306324	0.291847
79	C	0.152013	0.295273	0.291439
80	C	0.188947	0.319239	0.625217
81	C	0.200009	0.355801	0.291445
82	H	0.143197	0.268878	0.293974
83	H	0.226395	0.37337	0.294119
84	H	0.121895	0.352071	0.294025
85	C	0.187373	0.405246	0.2982
86	C	0.214101	0.307902	0.63148
87	C	0.090015	0.281164	0.298058
88	O	0.248207	0.333115	0.306227
89	O	0.16216	0.414132	0.306317
90	O	0.08112	0.247056	0.306125
91	C	0.319345	0.127693	0.378471
92	C	0.355633	0.153953	0.37869
93	C	0.367612	0.190716	0.378501
94	C	0.341344	0.200737	0.37868
95	C	0.304579	0.175956	0.711852
96	C	0.294557	0.139667	0.378693
97	H	0.349494	0.226994	0.376073
98	H	0.268299	0.121564	0.376086
99	H	0.373741	0.145805	0.37605
100	C	0.308944	0.091307	0.3734
101	C	0.278595	0.186353	0.706755
102	C	0.40399	0.216702	0.373383
103	O	0.244846	0.160745	0.364377
104	O	0.334549	0.083169	0.364324
105	O	0.412123	0.25044	0.364291
106	C	0.226154	0.260627	0.650086
107	N	0.254678	0.281058	0.342789
108	C	0.274863	0.269995	0.364029
109	C	0.265607	0.233943	0.359107
110	N	0.236804	0.213396	0.666673
111	C	0.216734	0.224773	0.646104
112	H	0.195474	0.207361	0.627575
113	C	0.304911	0.296413	0.390864
114	H	0.30625	0.322098	0.390555
115	H	0.329763	0.299987	0.377581
116	H	0.301931	0.28745	0.425247
117	N	0.285428	0.220476	0.376219
118	H	0.30699	0.23712	0.391335
119	N	0.206376	0.273426	0.631304
120	H	0.184599	0.256074	0.616941
121	C	0.234657	0.464586	0.650086
122	N	0.214236	0.472678	0.342806
123	C	0.225302	0.003929	0.364042
124	C	0.261351	0.030727	0.359097
125	N	0.281891	0.02247	0.666653
126	C	0.270508	0.49102	0.646084
127	H	0.287913	0.487168	0.627548
128	C	0.198891	0.007552	0.3909
129	H	0.173215	0.98321	0.390611
130	H	0.195308	0.02883	0.377627
131	H	0.207875	0.013544	0.425284
132	N	0.274821	0.064018	0.376203
133	H	0.25818	0.068935	0.391329
134	N	0.221848	0.432	0.631324
135	H	0.239193	0.427572	0.616945
136	C	0.03069	0.269125	0.64999
137	N	0.022601	0.240605	0.342696
138	C	0.491359	0.220426	0.363949
139	C	0.464565	0.22969	0.359044
140	N	0.472815	0.258481	0.66659
141	C	0.004256	0.278543	0.646001
142	H	0.008101	0.299796	0.627465
143	C	0.487731	0.190384	0.390794
144	H	0.512082	0.189043	0.390475
145	H	0.46645	0.165533	0.377531
146	H	0.481766	0.193377	0.425177
147	N	0.431282	0.20987	0.376169
148	H	0.426371	0.188316	0.391302
149	N	0.063266	0.28889	0.631197
150	H	0.067697	0.310671	0.616835
151	C	0.17603	0.368753	0.625277
152	C	0.139476	0.343259	0.624802
153	C	0.126508	0.306324	0.62518
154	C	0.152013	0.295273	0.624772
155	C	0.188947	0.319239	0.958552
156	C	0.200009	0.355801	0.624778
157	H	0.143197	0.268878	0.627306
158	H	0.226395	0.37337	0.627452
159	H	0.121895	0.352071	0.627359
160	C	0.187373	0.405246	0.631533
161	C	0.214101	0.307902	0.964811
162	C	0.090015	0.281164	0.63139
163	O	0.248207	0.333115	0.639559
164	O	0.16216	0.414132	0.639649
165	O	0.08112	0.247056	0.639456
166	C	0.319345	0.127693	0.711802
167	C	0.355633	0.153953	0.712025
168	C	0.367612	0.190716	0.711832
169	C	0.341344	0.200737	0.712012
170	C	0.304579	0.175956	0.045186
171	C	0.294557	0.139667	0.712025
172	H	0.349494	0.226994	0.709408
173	H	0.268299	0.121564	0.709421
174	H	0.373741	0.145805	0.709385
175	C	0.308944	0.091307	0.706732
176	C	0.278595	0.186353	0.040089
177	C	0.40399	0.216702	0.706718
178	O	0.244846	0.160745	0.697712
179	O	0.334549	0.083169	0.697656
180	O	0.412123	0.25044	0.697623
181	C	0.226154	0.260627	0.983421
182	N	0.254678	0.281058	0.676121
183	C	0.274863	0.269995	0.69736
184	C	0.265607	0.233943	0.692439
185	N	0.236804	0.213396	9e-06
186	C	0.216734	0.224773	0.979436
187	H	0.195474	0.207361	0.960909
188	C	0.304911	0.296413	0.724195
189	H	0.30625	0.322098	0.723887
190	H	0.329763	0.299987	0.710912
191	H	0.301931	0.28745	0.758579
192	N	0.285428	0.220476	0.709551
193	H	0.30699	0.23712	0.724667
194	N	0.206376	0.273426	0.964635
195	H	0.184599	0.256074	0.950273
196	C	0.234657	0.464586	0.983418
197	N	0.214236	0.472678	0.676141
198	C	0.225302	0.003929	0.697374
199	C	0.261351	0.030727	0.692429
200	N	0.281891	0.02247	0.999986
201	C	0.270508	0.49102	0.979419
202	H	0.287913	0.487168	0.96088
203	C	0.198891	0.007552	0.724232
204	H	0.173215	0.98321	0.723943
205	H	0.195308	0.02883	0.710959
206	H	0.207875	0.013544	0.758615
207	N	0.274821	0.064018	0.709538
208	H	0.25818	0.068935	0.72466
209	N	0.221848	0.432	0.964655
210	H	0.239193	0.427572	0.950276
211	C	0.03069	0.269125	0.983325
212	N	0.022601	0.240605	0.676031
213	C	0.491359	0.220426	0.697281
214	C	0.464565	0.22969	0.692376
215	N	0.472815	0.258481	0.999926
216	C	0.004256	0.278543	0.979336
217	H	0.008101	0.299796	0.960797
218	C	0.487731	0.190384	0.724129
219	H	0.512082	0.189043	0.723807
220	H	0.46645	0.165533	0.710863
221	H	0.481766	0.193377	0.758509
222	N	0.431282	0.20987	0.709501
223	H	0.426371	0.188316	0.724634
224	N	0.063266	0.28889	0.964532
225	H	0.067697	0.310671	0.950167
226	C	0.176032	0.868755	0.958608
227	C	0.139474	0.843258	0.958133
228	C	0.126508	0.806323	0.958512
229	C	0.152013	0.795271	0.958103
230	C	0.188946	0.819238	0.291886
231	C	0.200008	0.8558	0.95811
232	H	0.143197	0.768877	0.960641
233	H	0.226394	0.873368	0.960783
234	H	0.121897	0.852073	0.96069
235	C	0.187372	0.905245	0.964865
236	C	0.214102	0.807903	0.298147
237	C	0.090013	0.781162	0.964725
238	O	0.248206	0.833114	0.972894
239	O	0.16216	0.914131	0.972984
240	O	0.08112	0.747054	0.972791
241	C	0.319344	0.627692	0.045138
242	C	0.355632	0.653951	0.045358
243	C	0.367612	0.690716	0.045167
244	C	0.341344	0.700736	0.045346
245	C	0.304579	0.675956	0.378517
246	C	0.294557	0.639667	0.045359
247	H	0.349494	0.726995	0.042741
248	H	0.268298	0.621564	0.042755
249	H	0.373739	0.645803	0.042718
250	C	0.308943	0.591308	0.040066
251	C	0.278594	0.686351	0.373423
252	C	0.40399	0.7167	0.040052
253	O	0.244846	0.660746	0.031046
254	O	0.334547	0.583168	0.03099
255	O	0.412122	0.75044	0.030958
256	C	0.226153	0.760626	0.316755
257	N	0.254677	0.781056	0.009455
258	C	0.274864	0.769997	0.030695
259	C	0.265607	0.733943	0.025774
260	N	0.236803	0.713394	0.333342
261	C	0.216733	0.724771	0.312771
262	H	0.195474	0.707361	0.294242
263	C	0.30491	0.796412	0.05753
264	H	0.306249	0.822097	0.057221
265	H	0.329762	0.799986	0.044248
266	H	0.30193	0.787449	0.091914
267	N	0.285428	0.720475	0.042887
268	H	0.30699	0.73712	0.058003
269	N	0.206375	0.773425	0.297971
270	H	0.184599	0.756073	0.283608
271	C	0.234657	0.964585	0.316753
272	N	0.214236	0.972677	0.009474
273	C	0.225301	0.503927	0.030708
274	C	0.26135	0.530726	0.025765
275	N	0.281891	0.52247	0.333318
276	C	0.270508	0.991018	0.312753
277	H	0.287914	0.98717	0.294215
278	C	0.19889	0.507551	0.057567
279	H	0.173217	0.483211	0.057278
280	H	0.195308	0.528831	0.044295
281	H	0.207874	0.513544	0.091949
282	N	0.274821	0.564019	0.042871
283	H	0.25818	0.568934	0.057995
284	N	0.221849	0.931999	0.297991
285	H	0.239192	0.92757	0.28361
286	C	0.030691	0.769126	0.316658
287	N	0.022601	0.740604	0.009364
288	C	0.491358	0.720425	0.030616
289	C	0.464565	0.72969	0.02571
290	N	0.472815	0.758482	0.333259
291	C	0.004256	0.778542	0.31267
292	H	0.008099	0.799795	0.294131
293	C	0.48773	0.690383	0.057462
294	H	0.512082	0.689043	0.057141
295	H	0.466449	0.665532	0.044197
296	H	0.481766	0.693377	0.091845
297	N	0.431282	0.709871	0.042837
298	H	0.42637	0.688316	0.05797
299	N	0.063267	0.788892	0.297866
300	H	0.067695	0.810669	0.283502
301	C	0.176032	0.868755	0.291944
302	C	0.139474	0.843258	0.291468
303	C	0.126508	0.806323	0.291847
304	C	0.152013	0.795271	0.291439
305	C	0.188946	0.819238	0.625217
306	C	0.200008	0.8558	0.291445
307	H	0.143197	0.768877	0.293974
308	H	0.226394	0.873368	0.294119
309	H	0.121897	0.852073	0.294025
310	C	0.187372	0.905245	0.2982
311	C	0.214102	0.807903	0.63148
312	C	0.090013	0.781162	0.298058
313	O	0.248206	0.833114	0.306227
314	O	0.16216	0.914131	0.306317
315	O	0.08112	0.747054	0.306125
316	C	0.319344	0.627692	0.378471
317	C	0.355632	0.653951	0.37869
318	C	0.367612	0.690716	0.378501
319	C	0.341344	0.700736	0.37868
320	C	0.304579	0.675956	0.711852
321	C	0.294557	0.639667	0.378693
322	H	0.349494	0.726995	0.376073
323	H	0.268298	0.621564	0.376086
324	H	0.373739	0.645803	0.37605
325	C	0.308943	0.591308	0.3734
326	C	0.278594	0.686351	0.706755
327	C	0.40399	0.7167	0.373383
328	O	0.244846	0.660746	0.364377
329	O	0.334547	0.583168	0.364324
330	O	0.412122	0.75044	0.364291
331	C	0.226153	0.760626	0.650086
332	N	0.254677	0.781056	0.342789
333	C	0.274864	0.769997	0.364029
334	C	0.265607	0.733943	0.359107
335	N	0.236803	0.713394	0.666673
336	C	0.216733	0.724771	0.646104
337	H	0.195474	0.707361	0.627575
338	C	0.30491	0.796412	0.390864
339	H	0.306249	0.822097	0.390555
340	H	0.329762	0.799986	0.377581
341	H	0.30193	0.787449	0.425247
342	N	0.285428	0.720475	0.376219
343	H	0.30699	0.73712	0.391335
344	N	0.206375	0.773425	0.631304
345	H	0.184599	0.756073	0.616941
346	C	0.234657	0.964585	0.650086
347	N	0.214236	0.972677	0.342806
348	C	0.225301	0.503927	0.364042
349	C	0.26135	0.530726	0.359097
350	N	0.281891	0.52247	0.666653
351	C	0.270508	0.991018	0.646084
352	H	0.287914	0.98717	0.627548
353	C	0.19889	0.507551	0.3909
354	H	0.173217	0.483211	0.390611
355	H	0.195308	0.528831	0.377627
356	H	0.207874	0.513544	0.425284
357	N	0.274821	0.564019	0.376203
358	H	0.25818	0.568934	0.391329
359	N	0.221849	0.931999	0.631324
360	H	0.239192	0.92757	0.616945
361	C	0.030691	0.769126	0.64999
362	N	0.022601	0.740604	0.342696
363	C	0.491358	0.720425	0.363949
364	C	0.464565	0.72969	0.359044
365	N	0.472815	0.758482	0.66659
366	C	0.004256	0.778542	0.646001
367	H	0.008099	0.799795	0.627465
368	C	0.48773	0.690383	0.390794
369	H	0.512082	0.689043	0.390475
370	H	0.466449	0.665532	0.377531
371	H	0.481766	0.693377	0.425177
372	N	0.431282	0.709871	0.376169
373	H	0.42637	0.688316	0.391302
374	N	0.063267	0.788892	0.631197
375	H	0.067695	0.810669	0.616835
376	C	0.176032	0.868755	0.625277
377	C	0.139474	0.843258	0.624802
378	C	0.126508	0.806323	0.62518
379	C	0.152013	0.795271	0.624772
380	C	0.188946	0.819238	0.958552
381	C	0.200008	0.8558	0.624778
382	H	0.143197	0.768877	0.627306
383	H	0.226394	0.873368	0.627452
384	H	0.121897	0.852073	0.627359
385	C	0.187372	0.905245	0.631533
386	C	0.214102	0.807903	0.964811
387	C	0.090013	0.781162	0.63139
388	O	0.248206	0.833114	0.639559
389	O	0.16216	0.914131	0.639649
390	O	0.08112	0.747054	0.639456
391	C	0.319344	0.627692	0.711802
392	C	0.355632	0.653951	0.712025
393	C	0.367612	0.690716	0.711832
394	C	0.341344	0.700736	0.712012
395	C	0.304579	0.675956	0.045186
396	C	0.294557	0.639667	0.712025
397	H	0.349494	0.726995	0.709408
398	H	0.268298	0.621564	0.709421
399	H	0.373739	0.645803	0.709385
400	C	0.308943	0.591308	0.706732
401	C	0.278594	0.686351	0.040089
402	C	0.40399	0.7167	0.706718
403	O	0.244846	0.660746	0.697712
404	O	0.334547	0.583168	0.697656
405	O	0.412122	0.75044	0.697623
406	C	0.226153	0.760626	0.983421
407	N	0.254677	0.781056	0.676121
408	C	0.274864	0.769997	0.69736
409	C	0.265607	0.733943	0.692439
410	N	0.236803	0.713394	9e-06
411	C	0.216733	0.724771	0.979436
412	H	0.195474	0.707361	0.960909
413	C	0.30491	0.796412	0.724195
414	H	0.306249	0.822097	0.723887
415	H	0.329762	0.799986	0.710912
416	H	0.30193	0.787449	0.758579
417	N	0.285428	0.720475	0.709551
418	H	0.30699	0.73712	0.724667
419	N	0.206375	0.773425	0.964635
420	H	0.184599	0.756073	0.950273
421	C	0.234657	0.964585	0.983418
422	N	0.214236	0.972677	0.676141
423	C	0.225301	0.503927	0.697374
424	C	0.26135	0.530726	0.692429
425	N	0.281891	0.52247	0.999986
426	C	0.270508	0.991018	0.979419
427	H	0.287914	0.98717	0.96088
428	C	0.19889	0.507551	0.724232
429	H	0.173217	0.483211	0.723943
430	H	0.195308	0.528831	0.710959
431	H	0.207874	0.513544	0.758615
432	N	0.274821	0.564019	0.709538
433	H	0.25818	0.568934	0.72466
434	N	0.221849	0.931999	0.964655
435	H	0.239192	0.92757	0.950276
436	C	0.030691	0.769126	0.983325
437	N	0.022601	0.740604	0.676031
438	C	0.491358	0.720425	0.697281
439	C	0.464565	0.72969	0.692376
440	N	0.472815	0.758482	0.999926
441	C	0.004256	0.778542	0.979336
442	H	0.008099	0.799795	0.960797
443	C	0.48773	0.690383	0.724129
444	H	0.512082	0.689043	0.723807
445	H	0.466449	0.665532	0.710863
446	H	0.481766	0.693377	0.758509
447	N	0.431282	0.709871	0.709501
448	H	0.42637	0.688316	0.724634
449	N	0.063267	0.788892	0.964532
450	H	0.067695	0.810669	0.950167
451	C	0.67603	0.368753	0.958608
452	C	0.639476	0.343259	0.958133
453	C	0.626508	0.306324	0.958512
454	C	0.652013	0.295273	0.958103
455	C	0.688947	0.319239	0.291886
456	C	0.700009	0.355801	0.95811
457	H	0.643196	0.268878	0.960641
458	H	0.726395	0.37337	0.960783
459	H	0.621895	0.352071	0.96069
460	C	0.687374	0.405246	0.964865
461	C	0.7141	0.307902	0.298147
462	C	0.590015	0.281164	0.964725
463	O	0.748208	0.333115	0.972894
464	O	0.662159	0.414132	0.972984
465	O	0.58112	0.247056	0.972791
466	C	0.819345	0.127693	0.045138
467	C	0.855633	0.153953	0.045358
468	C	0.867612	0.190716	0.045167
469	C	0.841344	0.200737	0.045346
470	C	0.80458	0.175956	0.378517
471	C	0.794558	0.139667	0.045359
472	H	0.849494	0.226994	0.042741
473	H	0.768299	0.121564	0.042755
474	H	0.873741	0.145805	0.042718
475	C	0.808944	0.091307	0.040066
476	C	0.778595	0.186353	0.373423
477	C	0.903993	0.216702	0.040052
478	O	0.744847	0.160745	0.031046
479	O	0.834549	0.083169	0.03099
480	O	0.912123	0.25044	0.030958
481	C	0.726154	0.260627	0.316755
482	N	0.754677	0.281058	0.009455
483	C	0.774863	0.269995	0.030695
484	C	0.765607	0.233943	0.025774
485	N	0.736804	0.213396	0.333342
486	C	0.716734	0.224773	0.312771
487	H	0.695475	0.207361	0.294242
488	C	0.804912	0.296413	0.05753
489	H	0.806251	0.322098	0.057221
490	H	0.829763	0.299987	0.044248
491	H	0.801932	0.28745	0.091914
492	N	0.785429	0.220476	0.042887
493	H	0.80699	0.23712	0.058003
494	N	0.706376	0.273426	0.297971
495	H	0.684601	0.256074	0.283608
496	C	0.734656	0.464586	0.316753
497	N	0.714235	0.472678	0.009474
498	C	0.725302	0.003929	0.030708
499	C	0.761351	0.030727	0.025765
500	N	0.781891	0.02247	0.333318
501	C	0.770509	0.49102	0.312753
502	H	0.787913	0.487168	0.294215
503	C	0.698891	0.007552	0.057567
504	H	0.673216	0.98321	0.057278
505	H	0.695308	0.02883	0.044295
506	H	0.707875	0.013544	0.091949
507	N	0.774821	0.064018	0.042871
508	H	0.758181	0.068935	0.057995
509	N	0.721848	0.432	0.297991
510	H	0.739193	0.427572	0.28361
511	C	0.530691	0.269125	0.316658
512	N	0.5226	0.240605	0.009364
513	C	0.991359	0.220426	0.030616
514	C	0.964565	0.22969	0.02571
515	N	0.972815	0.258481	0.333259
516	C	0.504255	0.278543	0.31267
517	H	0.508101	0.299796	0.294131
518	C	0.987731	0.190384	0.057462
519	H	0.012081	0.189043	0.057141
520	H	0.96645	0.165533	0.044197
521	H	0.981766	0.193377	0.091845
522	N	0.931282	0.20987	0.042837
523	H	0.926371	0.188316	0.057969
524	N	0.563265	0.28889	0.297866
525	H	0.567697	0.310671	0.283502
526	C	0.67603	0.368753	0.291944
527	C	0.639476	0.343259	0.291468
528	C	0.626508	0.306324	0.291847
529	C	0.652013	0.295273	0.291439
530	C	0.688947	0.319239	0.625217
531	C	0.700009	0.355801	0.291445
532	H	0.643196	0.268878	0.293974
533	H	0.726395	0.37337	0.294119
534	H	0.621895	0.352071	0.294025
535	C	0.687374	0.405246	0.2982
536	C	0.7141	0.307902	0.63148
537	C	0.590015	0.281164	0.298058
538	O	0.748208	0.333115	0.306227
539	O	0.662159	0.414132	0.306317
540	O	0.58112	0.247056	0.306125
541	C	0.819345	0.127693	0.378471
542	C	0.855633	0.153953	0.37869
543	C	0.867612	0.190716	0.378501
544	C	0.841344	0.200737	0.37868
545	C	0.80458	0.175956	0.711852
546	C	0.794558	0.139667	0.378693
547	H	0.849494	0.226994	0.376073
548	H	0.768299	0.121564	0.376086
549	H	0.873741	0.145805	0.37605
550	C	0.808944	0.091307	0.3734
551	C	0.778595	0.186353	0.706755
552	C	0.903993	0.216702	0.373383
553	O	0.744847	0.160745	0.364377
554	O	0.834549	0.083169	0.364324
555	O	0.912123	0.25044	0.364291
556	C	0.726154	0.260627	0.650086
557	N	0.754677	0.281058	0.342789
558	C	0.774863	0.269995	0.364029
559	C	0.765607	0.233943	0.359107
560	N	0.736804	0.213396	0.666673
561	C	0.716734	0.224773	0.646104
562	H	0.695475	0.207361	0.627575
563	C	0.804912	0.296413	0.390864
564	H	0.806251	0.322098	0.390555
565	H	0.829763	0.299987	0.377581
566	H	0.801932	0.28745	0.425247
567	N	0.785429	0.220476	0.376219
568	H	0.80699	0.23712	0.391335
569	N	0.706376	0.273426	0.631304
570	H	0.684601	0.256074	0.616941
571	C	0.734656	0.464586	0.650086
572	N	0.714235	0.472678	0.342806
573	C	0.725302	0.003929	0.364042
574	C	0.761351	0.030727	0.359097
575	N	0.781891	0.02247	0.666653
576	C	0.770509	0.49102	0.646084
577	H	0.787913	0.487168	0.627548
578	C	0.698891	0.007552	0.3909
579	H	0.673216	0.98321	0.390611
580	H	0.695308	0.02883	0.377627
581	H	0.707875	0.013544	0.425284
582	N	0.774821	0.064018	0.376203
583	H	0.758181	0.068935	0.391329
584	N	0.721848	0.432	0.631324
585	H	0.739193	0.427572	0.616945
586	C	0.530691	0.269125	0.64999
587	N	0.5226	0.240605	0.342696
588	C	0.991359	0.220426	0.363949
589	C	0.964565	0.22969	0.359044
590	N	0.972815	0.258481	0.66659
591	C	0.504255	0.278543	0.646001
592	H	0.508101	0.299796	0.627465
593	C	0.987731	0.190384	0.390794
594	H	0.012081	0.189043	0.390475
595	H	0.96645	0.165533	0.377531
596	H	0.981766	0.193377	0.425177
597	N	0.931282	0.20987	0.376169
598	H	0.926371	0.188316	0.391302
599	N	0.563265	0.28889	0.631197
600	H	0.567697	0.310671	0.616835
601	C	0.67603	0.368753	0.625277
602	C	0.639476	0.343259	0.624802
603	C	0.626508	0.306324	0.62518
604	C	0.652013	0.295273	0.624772
605	C	0.688947	0.319239	0.958552
606	C	0.700009	0.355801	0.624778
607	H	0.643196	0.268878	0.627306
608	H	0.726395	0.37337	0.627452
609	H	0.621895	0.352071	0.627359
610	C	0.687374	0.405246	0.631533
611	C	0.7141	0.307902	0.964811
612	C	0.590015	0.281164	0.63139
613	O	0.748208	0.333115	0.639559
614	O	0.662159	0.414132	0.639649
615	O	0.58112	0.247056	0.639456
616	C	0.819345	0.127693	0.711802
617	C	0.855633	0.153953	0.712025
618	C	0.867612	0.190716	0.711832
619	C	0.841344	0.200737	0.712012
620	C	0.80458	0.175956	0.045186
621	C	0.794558	0.139667	0.712025
622	H	0.849494	0.226994	0.709408
623	H	0.768299	0.121564	0.709421
624	H	0.873741	0.145805	0.709385
625	C	0.808944	0.091307	0.706732
626	C	0.778595	0.186353	0.040089
627	C	0.903993	0.216702	0.706718
628	O	0.744847	0.160745	0.697712
629	O	0.834549	0.083169	0.697656
630	O	0.912123	0.25044	0.697623
631	C	0.726154	0.260627	0.983421
632	N	0.754677	0.281058	0.676121
633	C	0.774863	0.269995	0.69736
634	C	0.765607	0.233943	0.692439
635	N	0.736804	0.213396	9e-06
636	C	0.716734	0.224773	0.979436
637	H	0.695475	0.207361	0.960909
638	C	0.804912	0.296413	0.724195
639	H	0.806251	0.322098	0.723887
640	H	0.829763	0.299987	0.710912
641	H	0.801932	0.28745	0.758579
642	N	0.785429	0.220476	0.709551
643	H	0.80699	0.23712	0.724667
644	N	0.706376	0.273426	0.964635
645	H	0.684601	0.256074	0.950273
646	C	0.734656	0.464586	0.983418
647	N	0.714235	0.472678	0.676141
648	C	0.725302	0.003929	0.697374
649	C	0.761351	0.030727	0.692429
650	N	0.781891	0.02247	0.999986
651	C	0.770509	0.49102	0.979419
652	H	0.787913	0.487168	0.96088
653	C	0.698891	0.007552	0.724232
654	H	0.673216	0.98321	0.723943
655	H	0.695308	0.02883	0.710959
656	H	0.707875	0.013544	0.758615
657	N	0.774821	0.064018	0.709538
658	H	0.758181	0.068935	0.72466
659	N	0.721848	0.432	0.964655
660	H	0.739193	0.427572	0.950276
661	C	0.530691	0.269125	0.983325
662	N	0.5226	0.240605	0.676031
663	C	0.991359	0.220426	0.697281
664	C	0.964565	0.22969	0.692376
665	N	0.972815	0.258481	0.999926
666	C	0.504255	0.278543	0.979336
667	H	0.508101	0.299796	0.960797
668	C	0.987731	0.190384	0.724129
669	H	0.012081	0.189043	0.723807
670	H	0.96645	0.165533	0.710863
671	H	0.981766	0.193377	0.758509
672	N	0.931282	0.20987	0.709501
673	H	0.926371	0.188316	0.724634
674	N	0.563265	0.28889	0.964532
675	H	0.567697	0.310671	0.950167
676	C	0.676032	0.868755	0.958608
677	C	0.639475	0.843258	0.958133
678	C	0.626508	0.806323	0.958512
679	C	0.652013	0.795271	0.958103
680	C	0.688948	0.819238	0.291886
681	C	0.700009	0.8558	0.95811
682	H	0.643197	0.768877	0.960641
683	H	0.726395	0.873368	0.960783
684	H	0.621896	0.852073	0.96069
685	C	0.687372	0.905245	0.964865
686	C	0.714102	0.807903	0.298147
687	C	0.590014	0.781162	0.964725
688	O	0.748206	0.833114	0.972894
689	O	0.66216	0.914131	0.972984
690	O	0.58112	0.747054	0.972791
691	C	0.819343	0.627692	0.045138
692	C	0.855631	0.653951	0.045358
693	C	0.867611	0.690716	0.045167
694	C	0.841345	0.700736	0.045346
695	C	0.804579	0.675956	0.378517
696	C	0.794557	0.639667	0.045359
697	H	0.849495	0.726995	0.042741
698	H	0.768298	0.621564	0.042755
699	H	0.873739	0.645803	0.042718
700	C	0.808943	0.591308	0.040066
701	C	0.778595	0.686351	0.373423
702	C	0.903991	0.7167	0.040052
703	O	0.744846	0.660746	0.031046
704	O	0.834547	0.583168	0.03099
705	O	0.912122	0.75044	0.030958
706	C	0.726155	0.760626	0.316755
707	N	0.754677	0.781056	0.009455
708	C	0.774864	0.769997	0.030695
709	C	0.765606	0.733943	0.025774
710	N	0.736804	0.713394	0.333342
711	C	0.716732	0.724771	0.312771
712	H	0.695474	0.707361	0.294242
713	C	0.80491	0.796412	0.05753
714	H	0.806249	0.822097	0.057221
715	H	0.829764	0.799986	0.044248
716	H	0.80193	0.787449	0.091914
717	N	0.785428	0.720475	0.042887
718	H	0.806989	0.73712	0.058003
719	N	0.706377	0.773425	0.297971
720	H	0.684599	0.756073	0.283608
721	C	0.734657	0.964585	0.316753
722	N	0.714235	0.972677	0.009474
723	C	0.7253	0.503927	0.030708
724	C	0.761351	0.530726	0.025765
725	N	0.781892	0.52247	0.333318
726	C	0.770507	0.991018	0.312753
727	H	0.787915	0.98717	0.294215
728	C	0.69889	0.507551	0.057567
729	H	0.673217	0.483211	0.057278
730	H	0.695309	0.528831	0.044295
731	H	0.707874	0.513544	0.091949
732	N	0.774822	0.564019	0.042871
733	H	0.75818	0.568934	0.057995
734	N	0.721849	0.931999	0.297991
735	H	0.739194	0.92757	0.28361
736	C	0.530691	0.769126	0.316658
737	N	0.5226	0.740604	0.009364
738	C	0.991359	0.720425	0.030616
739	C	0.964566	0.72969	0.02571
740	N	0.972814	0.758482	0.333259
741	C	0.504255	0.778542	0.31267
742	H	0.5081	0.799795	0.294131
743	C	0.987729	0.690383	0.057462
744	H	0.012082	0.689043	0.057141
745	H	0.96645	0.665532	0.044197
746	H	0.981767	0.693377	0.091845
747	N	0.931283	0.709871	0.042837
748	H	0.92637	0.688316	0.05797
749	N	0.563266	0.788892	0.297866
750	H	0.567697	0.810669	0.283502
751	C	0.676032	0.868755	0.291944
752	C	0.639475	0.843258	0.291468
753	C	0.626508	0.806323	0.291847
754	C	0.652013	0.795271	0.291439
755	C	0.688948	0.819238	0.625217
756	C	0.700009	0.8558	0.291445
757	H	0.643197	0.768877	0.293974
758	H	0.726395	0.873368	0.294119
759	H	0.621896	0.852073	0.294025
760	C	0.687372	0.905245	0.2982
761	C	0.714102	0.807903	0.63148
762	C	0.590014	0.781162	0.298058
763	O	0.748206	0.833114	0.306227
764	O	0.66216	0.914131	0.306317
765	O	0.58112	0.747054	0.306125
766	C	0.819343	0.627692	0.378471
767	C	0.855631	0.653951	0.37869
768	C	0.867611	0.690716	0.378501
769	C	0.841345	0.700736	0.37868
770	C	0.804579	0.675956	0.711852
771	C	0.794557	0.639667	0.378693
772	H	0.849495	0.726995	0.376073
773	H	0.768298	0.621564	0.376086
774	H	0.873739	0.645803	0.37605
775	C	0.808943	0.591308	0.3734
776	C	0.778595	0.686351	0.706755
777	C	0.903991	0.7167	0.373383
778	O	0.744846	0.660746	0.364377
779	O	0.834547	0.583168	0.364324
780	O	0.912122	0.75044	0.364291
781	C	0.726155	0.760626	0.650086
782	N	0.754677	0.781056	0.342789
783	C	0.774864	0.769997	0.364029
784	C	0.765606	0.733943	0.359107
785	N	0.736804	0.713394	0.666673
786	C	0.716732	0.724771	0.646104
787	H	0.695474	0.707361	0.627575
788	C	0.80491	0.796412	0.390864
789	H	0.806249	0.822097	0.390555
790	H	0.829764	0.799986	0.377581
791	H	0.80193	0.787449	0.425247
792	N	0.785428	0.720475	0.376219
793	H	0.806989	0.73712	0.391335
794	N	0.706377	0.773425	0.631304
795	H	0.684599	0.756073	0.616941
796	C	0.734657	0.964585	0.650086
797	N	0.714235	0.972677	0.342806
798	C	0.7253	0.503927	0.364042
799	C	0.761351	0.530726	0.359097
800	N	0.781892	0.52247	0.666653
801	C	0.770507	0.991018	0.646084
802	H	0.787915	0.98717	0.627548
803	C	0.69889	0.507551	0.3909
804	H	0.673217	0.483211	0.390611
805	H	0.695309	0.528831	0.377627
806	H	0.707874	0.513544	0.425284
807	N	0.774822	0.564019	0.376203
808	H	0.75818	0.568934	0.391329
809	N	0.721849	0.931999	0.631324
810	H	0.739194	0.92757	0.616945
811	C	0.530691	0.769126	0.64999
812	N	0.5226	0.740604	0.342696
813	C	0.991359	0.720425	0.363949
814	C	0.964566	0.72969	0.359044
815	N	0.972814	0.758482	0.66659
816	C	0.504255	0.778542	0.646001
817	H	0.5081	0.799795	0.627465
818	C	0.987729	0.690383	0.390794
819	H	0.012082	0.689043	0.390475
820	H	0.96645	0.665532	0.377531
821	H	0.981767	0.693377	0.425177
822	N	0.931283	0.709871	0.376169
823	H	0.92637	0.688316	0.391302
824	N	0.563266	0.788892	0.631197
825	H	0.567697	0.810669	0.616835
826	C	0.676032	0.868755	0.625277
827	C	0.639475	0.843258	0.624802
828	C	0.626508	0.806323	0.62518
829	C	0.652013	0.795271	0.624772
830	C	0.688948	0.819238	0.958552
831	C	0.700009	0.8558	0.624778
832	H	0.643197	0.768877	0.627306
833	H	0.726395	0.873368	0.627452
834	H	0.621896	0.852073	0.627359
835	C	0.687372	0.905245	0.631533
836	C	0.714102	0.807903	0.964811
837	C	0.590014	0.781162	0.63139
838	O	0.748206	0.833114	0.639559
839	O	0.66216	0.914131	0.639649
840	O	0.58112	0.747054	0.639456
841	C	0.819343	0.627692	0.711802
842	C	0.855631	0.653951	0.712025
843	C	0.867611	0.690716	0.711832
844	C	0.841345	0.700736	0.712012
845	C	0.804579	0.675956	0.045186
846	C	0.794557	0.639667	0.712025
847	H	0.849495	0.726995	0.709408
848	H	0.768298	0.621564	0.709421
849	H	0.873739	0.645803	0.709385
850	C	0.808943	0.591308	0.706732
851	C	0.778595	0.686351	0.040089
852	C	0.903991	0.7167	0.706718
853	O	0.744846	0.660746	0.697712
854	O	0.834547	0.583168	0.697656
855	O	0.912122	0.75044	0.697623
856	C	0.726155	0.760626	0.983421
857	N	0.754677	0.781056	0.676121
858	C	0.774864	0.769997	0.69736
859	C	0.765606	0.733943	0.692439
860	N	0.736804	0.713394	9e-06
861	C	0.716732	0.724771	0.979436
862	H	0.695474	0.707361	0.960909
863	C	0.80491	0.796412	0.724195
864	H	0.806249	0.822097	0.723887
865	H	0.829764	0.799986	0.710912
866	H	0.80193	0.787449	0.758579
867	N	0.785428	0.720475	0.709551
868	H	0.806989	0.73712	0.724667
869	N	0.706377	0.773425	0.964635
870	H	0.684599	0.756073	0.950273
871	C	0.734657	0.964585	0.983418
872	N	0.714235	0.972677	0.676141
873	C	0.7253	0.503927	0.697374
874	C	0.761351	0.530726	0.692429
875	N	0.781892	0.52247	0.999986
876	C	0.770507	0.991018	0.979419
877	H	0.787915	0.98717	0.96088
878	C	0.69889	0.507551	0.724232
879	H	0.673217	0.483211	0.723943
880	H	0.695309	0.528831	0.710959
881	H	0.707874	0.513544	0.758615
882	N	0.774822	0.564019	0.709538
883	H	0.75818	0.568934	0.72466
884	N	0.721849	0.931999	0.964655
885	H	0.739194	0.92757	0.950276
886	C	0.530691	0.769126	0.983325
887	N	0.5226	0.740604	0.676031
888	C	0.991359	0.720425	0.697281
889	C	0.964566	0.72969	0.692376
890	N	0.972814	0.758482	0.999926
891	C	0.504255	0.778542	0.979336
892	H	0.5081	0.799795	0.960797
893	C	0.987729	0.690383	0.724129
894	H	0.012082	0.689043	0.723807
895	H	0.96645	0.665532	0.710863
896	H	0.981767	0.693377	0.758509
897	N	0.931283	0.709871	0.709501
898	H	0.92637	0.688316	0.724634
899	N	0.563266	0.788892	0.964532
900	H	0.567697	0.810669	0.950167
