data_C720H432N216_2018-02-15_10:35:58
#******************************************
#
# CIF file created by Zeo++
# Zeo++ is an open source package to
# analyze microporous materials
#
#*******************************************

_cell_length_a		46.3438   
_cell_length_b		46.3439   
_cell_length_c		29.633   
_cell_angle_alpha		90   
_cell_angle_beta		90   
_cell_angle_gamma		120   

_symmetry_space_group_name_H-M		'P1'
_symmetry_Int_Tables_number		1
_symmetry_cell_setting		Monoclinic

loop_
_symmetry_equiv_pos_as_xyz
'+x,+y,+z'

loop_
_atom_site_label
_atom_site_type_symbol
_atom_site_fract_x
_atom_site_fract_y
_atom_site_fract_z
1	C	0.024438	0.26291	0.334033
2	C	0.042089	0.244807	0.997928
3	C	0.075489	0.257837	0.012126
4	C	0.092803	0.291698	0.02573
5	C	0.080509	0.313325	0.346529
6	C	0.045705	0.298286	0.338734
7	N	0.120114	0.303302	0.053156
8	H	0.036651	0.313986	0.333305
9	H	0.125815	0.28807	0.067607
10	H	0.129303	0.325011	0.400817
11	H	0.030742	0.22108	0.985864
12	C	0.106632	0.228771	0.032936
13	C	0.094577	0.242564	0.000307
14	N	0.114687	0.256071	0.297003
15	H	0.095308	0.222041	0.063824
16	C	0.104498	0.347575	0.005747
17	C	0.104756	0.37707	0.01947
18	H	0.084463	0.375406	0.035523
19	N	0.133234	0.352401	0.32011
20	C	0.024438	0.26291	0.667367
21	C	0.042089	0.244807	0.33126
22	C	0.075489	0.257837	0.345459
23	C	0.092803	0.291698	0.359063
24	C	0.080509	0.313325	0.679864
25	C	0.045705	0.298286	0.672065
26	N	0.120114	0.303302	0.386488
27	H	0.036651	0.313986	0.666638
28	H	0.125815	0.28807	0.400941
29	H	0.129303	0.325011	0.734148
30	H	0.030742	0.22108	0.319196
31	C	0.106632	0.228771	0.366271
32	C	0.094577	0.242564	0.333642
33	N	0.114687	0.256071	0.630334
34	H	0.095308	0.222041	0.397159
35	C	0.104498	0.347575	0.339081
36	C	0.104756	0.37707	0.352803
37	H	0.084463	0.375406	0.368856
38	N	0.133234	0.352401	0.653444
39	C	0.024438	0.26291	0.000698
40	C	0.042089	0.244807	0.664593
41	C	0.075489	0.257837	0.678794
42	C	0.092803	0.291698	0.692397
43	C	0.080509	0.313325	0.013196
44	C	0.045705	0.298286	0.005399
45	N	0.120114	0.303302	0.719822
46	H	0.036651	0.313986	0.999973
47	H	0.125815	0.28807	0.734273
48	H	0.129303	0.325011	0.067482
49	H	0.030742	0.22108	0.652529
50	C	0.106632	0.228771	0.699602
51	C	0.094577	0.242564	0.666976
52	N	0.114687	0.256071	0.963669
53	H	0.095308	0.222041	0.73049
54	C	0.104498	0.347575	0.672412
55	C	0.104756	0.37707	0.686137
56	H	0.084463	0.375406	0.70219
57	N	0.133234	0.352401	0.986778
58	C	0.024437	0.762911	0.334033
59	C	0.04209	0.744807	0.997928
60	C	0.075489	0.757838	0.012126
61	C	0.092803	0.791699	0.02573
62	C	0.080509	0.813326	0.346529
63	C	0.045704	0.798286	0.33873
64	N	0.120114	0.803302	0.053155
65	H	0.036649	0.813983	0.333305
66	H	0.125815	0.788068	0.067607
67	H	0.129301	0.825009	0.400813
68	H	0.030742	0.721079	0.985864
69	C	0.106631	0.728771	0.032936
70	C	0.094579	0.742564	0.000307
71	N	0.114685	0.756069	0.297003
72	H	0.095309	0.722041	0.063824
73	C	0.104498	0.847575	0.005747
74	C	0.104756	0.877071	0.019471
75	H	0.084461	0.875404	0.035524
76	N	0.133232	0.852399	0.320109
77	C	0.024437	0.762911	0.667367
78	C	0.04209	0.744807	0.33126
79	C	0.075489	0.757838	0.345459
80	C	0.092803	0.791699	0.359063
81	C	0.080509	0.813326	0.679864
82	C	0.045704	0.798286	0.672065
83	N	0.120114	0.803302	0.386488
84	H	0.036649	0.813983	0.666638
85	H	0.125815	0.788068	0.400941
86	H	0.129301	0.825009	0.734148
87	H	0.030742	0.721079	0.319196
88	C	0.106631	0.728771	0.366271
89	C	0.094579	0.742564	0.333642
90	N	0.114685	0.756069	0.630334
91	H	0.095309	0.722041	0.397159
92	C	0.104498	0.847575	0.339081
93	C	0.104756	0.877071	0.352803
94	H	0.084461	0.875404	0.368856
95	N	0.133232	0.852399	0.653444
96	C	0.024437	0.762911	0.000698
97	C	0.04209	0.744807	0.664593
98	C	0.075489	0.757838	0.678794
99	C	0.092803	0.791699	0.692397
100	C	0.080509	0.813326	0.013196
101	C	0.045704	0.798286	0.005399
102	N	0.120114	0.803302	0.719822
103	H	0.036649	0.813983	0.999973
104	H	0.125815	0.788068	0.734273
105	H	0.129301	0.825009	0.067481
106	H	0.030742	0.721079	0.652529
107	C	0.106631	0.728771	0.699602
108	C	0.094579	0.742564	0.666976
109	N	0.114685	0.756069	0.963669
110	H	0.095309	0.722041	0.73049
111	C	0.104498	0.847575	0.672412
112	C	0.104756	0.877071	0.686137
113	H	0.084461	0.875404	0.70219
114	N	0.133232	0.852399	0.986775
115	C	0.209989	0.299664	0.99459
116	C	0.192967	0.264069	0.325432
117	C	0.212249	0.247997	0.32916
118	N	0.192686	0.315677	0.004977
119	H	0.19943	0.222607	0.328513
120	H	0.203813	0.338555	0.014913
121	H	0.169587	0.303675	0.346414
122	H	0.229508	0.198214	0.004515
123	H	0.22935	0.03482	0.340563
124	C	0.215324	0.467799	0.007581
125	C	0.199258	0.4328	0.015202
126	C	0.219922	0.419639	0.028944
127	N	0.207324	0.391639	0.05518
128	H	0.185274	0.382168	0.068544
129	H	0.221787	0.38461	0.402318
130	H	0.200652	0.477995	0.001319
131	C	0.157454	0.246019	0.988553
132	C	0.137625	0.230037	0.026975
133	H	0.14784	0.22466	0.054035
134	N	0.143432	0.257501	0.291489
135	C	0.135452	0.408066	0.019788
136	C	0.165226	0.409005	0.005916
137	N	0.160934	0.380471	0.320143
138	H	0.136731	0.428063	0.036212
139	H	0.214504	0.136174	0.031067
140	H	0.214303	0.083447	0.031292
141	C	0.209989	0.299664	0.327922
142	C	0.192967	0.264069	0.658766
143	C	0.212249	0.247997	0.662494
144	N	0.192686	0.315677	0.338309
145	H	0.19943	0.222607	0.661847
146	H	0.203813	0.338555	0.348247
147	H	0.169587	0.303675	0.679749
148	H	0.229508	0.198214	0.337846
149	H	0.22935	0.03482	0.673897
150	C	0.215324	0.467799	0.340914
151	C	0.199258	0.4328	0.348534
152	C	0.219922	0.419639	0.362279
153	N	0.207324	0.391639	0.388513
154	H	0.185274	0.382168	0.401876
155	H	0.221787	0.38461	0.735653
156	H	0.200652	0.477995	0.334653
157	C	0.157454	0.246019	0.321886
158	C	0.137625	0.230037	0.360308
159	H	0.14784	0.22466	0.387369
160	N	0.143432	0.257501	0.624824
161	C	0.135452	0.408066	0.35312
162	C	0.165226	0.409005	0.33925
163	N	0.160934	0.380471	0.653477
164	H	0.136731	0.428063	0.369544
165	H	0.214504	0.136174	0.364401
166	H	0.214303	0.083447	0.364627
167	C	0.209989	0.299664	0.661256
168	C	0.192967	0.264069	0.9921
169	C	0.212249	0.247997	0.995826
170	N	0.192686	0.315677	0.671643
171	H	0.19943	0.222607	0.995181
172	H	0.203813	0.338555	0.681581
173	H	0.169587	0.303675	0.013081
174	H	0.229508	0.198214	0.671181
175	H	0.22935	0.03482	0.00723
176	C	0.215324	0.467799	0.674248
177	C	0.199258	0.4328	0.681868
178	C	0.219922	0.419639	0.69561
179	N	0.207324	0.391639	0.721847
180	H	0.185274	0.382168	0.735211
181	H	0.221787	0.38461	0.068985
182	H	0.200652	0.477995	0.667985
183	C	0.157454	0.246019	0.655219
184	C	0.137625	0.230037	0.693642
185	H	0.14784	0.22466	0.720703
186	N	0.143432	0.257501	0.958155
187	C	0.135452	0.408066	0.686454
188	C	0.165226	0.409005	0.672585
189	N	0.160934	0.380471	0.986809
190	H	0.136731	0.428063	0.702879
191	H	0.214504	0.136174	0.697732
192	H	0.214303	0.083447	0.697958
193	C	0.209989	0.799664	0.994587
194	C	0.192967	0.764069	0.325432
195	C	0.212248	0.747996	0.32916
196	N	0.192685	0.815675	0.004974
197	H	0.19943	0.722607	0.328513
198	H	0.203812	0.838553	0.014912
199	H	0.169585	0.803673	0.346414
200	H	0.229508	0.698214	0.004515
201	H	0.22935	0.53482	0.340563
202	C	0.215324	0.967799	0.007581
203	C	0.199257	0.9328	0.015202
204	C	0.219921	0.919639	0.028944
205	N	0.207324	0.891639	0.05518
206	H	0.185274	0.882168	0.068544
207	H	0.221785	0.884608	0.402318
208	H	0.200651	0.977993	0.001319
209	C	0.157453	0.746018	0.988553
210	C	0.137624	0.730037	0.026975
211	H	0.14784	0.72466	0.054035
212	N	0.143431	0.757502	0.291489
213	C	0.135451	0.908066	0.019788
214	C	0.165226	0.909005	0.005916
215	N	0.160934	0.880472	0.320142
216	H	0.136729	0.928061	0.036213
217	H	0.214504	0.636173	0.031067
218	H	0.214302	0.583446	0.031292
219	C	0.209989	0.799664	0.327922
220	C	0.192967	0.764069	0.658766
221	C	0.212248	0.747996	0.662494
222	N	0.192685	0.815675	0.338309
223	H	0.19943	0.722607	0.661847
224	H	0.203812	0.838553	0.348247
225	H	0.169585	0.803673	0.679746
226	H	0.229508	0.698214	0.337846
227	H	0.22935	0.53482	0.673897
228	C	0.215324	0.967799	0.340914
229	C	0.199257	0.9328	0.348534
230	C	0.219921	0.919639	0.362279
231	N	0.207324	0.891639	0.388513
232	H	0.185274	0.882168	0.401876
233	H	0.221785	0.884608	0.735649
234	H	0.200651	0.977993	0.334653
235	C	0.157453	0.746018	0.321885
236	C	0.137624	0.730037	0.360308
237	H	0.14784	0.72466	0.387369
238	N	0.143431	0.757502	0.624824
239	C	0.135451	0.908066	0.353123
240	C	0.165226	0.909005	0.33925
241	N	0.160934	0.880472	0.653474
242	H	0.136729	0.928061	0.369547
243	H	0.214504	0.636173	0.364401
244	H	0.214302	0.583446	0.364627
245	C	0.209989	0.799664	0.661256
246	C	0.192967	0.764069	0.9921
247	C	0.212248	0.747996	0.995826
248	N	0.192685	0.815675	0.671643
249	H	0.19943	0.722607	0.995181
250	H	0.203812	0.838553	0.681578
251	H	0.169585	0.803673	0.01308
252	H	0.229508	0.698214	0.671181
253	H	0.22935	0.53482	0.00723
254	C	0.215324	0.967799	0.674248
255	C	0.199257	0.9328	0.681868
256	C	0.219921	0.919639	0.69561
257	N	0.207324	0.891639	0.721847
258	H	0.185274	0.882168	0.735211
259	H	0.221785	0.884608	0.068984
260	H	0.200651	0.977993	0.667985
261	C	0.157453	0.746018	0.655219
262	C	0.137624	0.730037	0.693642
263	H	0.14784	0.72466	0.720703
264	N	0.143431	0.757502	0.958155
265	C	0.135451	0.908066	0.686454
266	C	0.165226	0.909005	0.672585
267	N	0.160934	0.880472	0.986809
268	H	0.136729	0.928061	0.702879
269	H	0.214504	0.636173	0.697732
270	H	0.214302	0.583446	0.697958
271	C	0.267844	0.249458	0.336064
272	C	0.274702	0.200143	0.018489
273	C	0.254285	0.214299	0.009214
274	C	0.247923	0.265452	0.331528
275	C	0.263172	0.300957	0.99806
276	C	0.245508	0.318333	0.993743
277	H	0.288312	0.315548	0.00138
278	C	0.268988	0.023901	0.336007
279	C	0.254449	0.044539	0.343674
280	C	0.274465	0.079352	0.352236
281	C	0.250852	0.487891	0.336619
282	C	0.253965	0.436313	0.350049
283	C	0.268181	0.469523	0.335394
284	H	0.292689	0.480439	0.32719
285	C	0.268287	0.416794	0.003678
286	C	0.282699	0.404906	0.035471
287	C	0.280544	0.373632	0.029062
288	C	0.262686	0.353729	0.991607
289	N	0.25093	0.367707	0.295063
290	H	0.286526	0.363319	0.055397
291	H	0.290461	0.41646	0.066094
292	N	0.253425	0.396784	0.300779
293	C	0.265243	0.104363	0.013394
294	C	0.235049	0.104606	0.020585
295	C	0.235168	0.135565	0.020454
296	C	0.26547	0.165906	0.013091
297	N	0.290999	0.161824	0.332134
298	N	0.290831	0.13393	0.332246
299	C	0.267844	0.249458	0.669396
300	C	0.274702	0.200143	0.351824
301	C	0.254285	0.214299	0.342547
302	C	0.247923	0.265452	0.66486
303	C	0.263172	0.300957	0.331392
304	C	0.245508	0.318333	0.327078
305	H	0.288312	0.315548	0.334712
306	C	0.268988	0.023901	0.669342
307	C	0.254449	0.044539	0.677005
308	C	0.274465	0.079352	0.68557
309	C	0.250852	0.487891	0.669952
310	C	0.253965	0.436313	0.683383
311	C	0.268181	0.469523	0.668727
312	H	0.292689	0.480439	0.660524
313	C	0.268287	0.416794	0.337012
314	C	0.282699	0.404906	0.368805
315	C	0.280544	0.373632	0.362397
316	C	0.262686	0.353729	0.32494
317	N	0.25093	0.367707	0.628397
318	H	0.286526	0.363319	0.388732
319	H	0.290461	0.41646	0.399426
320	N	0.253425	0.396784	0.634111
321	C	0.265243	0.104363	0.346728
322	C	0.235049	0.104606	0.35392
323	C	0.235168	0.135565	0.353788
324	C	0.26547	0.165906	0.346425
325	N	0.290999	0.161824	0.665468
326	N	0.290831	0.13393	0.665579
327	C	0.267844	0.249458	0.00273
328	C	0.274702	0.200143	0.685155
329	C	0.254285	0.214299	0.675882
330	C	0.247923	0.265452	0.998195
331	C	0.263172	0.300957	0.664725
332	C	0.245508	0.318333	0.660412
333	H	0.288312	0.315548	0.668046
334	C	0.268988	0.023901	0.002673
335	C	0.254449	0.044539	0.01034
336	C	0.274465	0.079352	0.018903
337	C	0.250852	0.487891	0.003287
338	C	0.253965	0.436313	0.016716
339	C	0.268181	0.469523	0.002062
340	H	0.292689	0.480439	0.993858
341	C	0.268287	0.416794	0.670347
342	C	0.282699	0.404906	0.702136
343	C	0.280544	0.373632	0.695728
344	C	0.262686	0.353729	0.658273
345	N	0.25093	0.367707	0.961728
346	H	0.286526	0.363319	0.722063
347	H	0.290461	0.41646	0.732761
348	N	0.253425	0.396784	0.967445
349	C	0.265243	0.104363	0.680059
350	C	0.235049	0.104606	0.687251
351	C	0.235168	0.135565	0.687119
352	C	0.26547	0.165906	0.679759
353	N	0.290999	0.161824	0.998802
354	N	0.290831	0.13393	0.998913
355	C	0.267844	0.749459	0.336064
356	C	0.274702	0.700143	0.018489
357	C	0.254284	0.714297	0.009214
358	C	0.247923	0.765452	0.331528
359	C	0.263172	0.800957	0.99806
360	C	0.245508	0.818334	0.993743
361	H	0.288312	0.815548	0.00138
362	C	0.268987	0.5239	0.336007
363	C	0.254449	0.544538	0.343674
364	C	0.274465	0.579353	0.352236
365	C	0.250852	0.987892	0.336619
366	C	0.253965	0.936313	0.350049
367	C	0.268179	0.969521	0.335395
368	H	0.292688	0.980437	0.32719
369	C	0.268287	0.916794	0.003678
370	C	0.282698	0.904907	0.035471
371	C	0.280544	0.873632	0.029062
372	C	0.262686	0.853729	0.991607
373	N	0.25093	0.867707	0.295063
374	H	0.286525	0.863317	0.055398
375	H	0.29046	0.91646	0.066095
376	N	0.253425	0.896784	0.300779
377	C	0.265243	0.604363	0.013394
378	C	0.235048	0.604605	0.020585
379	C	0.235168	0.635565	0.020454
380	C	0.265469	0.665906	0.013091
381	N	0.290999	0.661824	0.332134
382	N	0.29083	0.633928	0.332246
383	C	0.267844	0.749459	0.669396
384	C	0.274702	0.700143	0.351821
385	C	0.254284	0.714297	0.342547
386	C	0.247923	0.765452	0.66486
387	C	0.263172	0.800957	0.331392
388	C	0.245508	0.818334	0.327078
389	H	0.288312	0.815548	0.334713
390	C	0.268987	0.5239	0.669342
391	C	0.254449	0.544538	0.677005
392	C	0.274465	0.579353	0.68557
393	C	0.250852	0.987892	0.669952
394	C	0.253965	0.936313	0.683383
395	C	0.268179	0.969521	0.668727
396	H	0.292688	0.980437	0.660524
397	C	0.268287	0.916794	0.337012
398	C	0.282698	0.904907	0.368805
399	C	0.280544	0.873632	0.362397
400	C	0.262686	0.853729	0.32494
401	N	0.25093	0.867707	0.628397
402	H	0.286525	0.863317	0.388732
403	H	0.29046	0.91646	0.399426
404	N	0.253425	0.896784	0.634111
405	C	0.265243	0.604363	0.346728
406	C	0.235048	0.604605	0.35392
407	C	0.235168	0.635565	0.353788
408	C	0.265469	0.665906	0.346425
409	N	0.290999	0.661824	0.665468
410	N	0.29083	0.633928	0.665579
411	C	0.267844	0.749459	0.00273
412	C	0.274702	0.700143	0.685155
413	C	0.254284	0.714297	0.675882
414	C	0.247923	0.765452	0.998195
415	C	0.263172	0.800957	0.664725
416	C	0.245508	0.818334	0.660412
417	H	0.288312	0.815548	0.668046
418	C	0.268987	0.5239	0.002673
419	C	0.254449	0.544538	0.01034
420	C	0.274465	0.579353	0.018903
421	C	0.250852	0.987892	0.003287
422	C	0.253965	0.936313	0.016716
423	C	0.268179	0.969521	0.002062
424	H	0.292688	0.980437	0.993858
425	C	0.268287	0.916794	0.670347
426	C	0.282698	0.904907	0.702136
427	C	0.280544	0.873632	0.695728
428	C	0.262686	0.853729	0.658273
429	N	0.25093	0.867707	0.961728
430	H	0.286525	0.863317	0.722063
431	H	0.29046	0.91646	0.732761
432	N	0.253425	0.896784	0.967445
433	C	0.265243	0.604363	0.680059
434	C	0.235048	0.604605	0.687251
435	C	0.235168	0.635565	0.687119
436	C	0.265469	0.665906	0.679759
437	N	0.290999	0.661824	0.998802
438	N	0.29083	0.633928	0.998913
439	C	0.488415	0.246661	0.330272
440	C	0.468105	0.211124	0.329207
441	C	0.432954	0.193853	0.326314
442	C	0.416309	0.212566	0.996794
443	C	0.434724	0.248036	0.993274
444	C	0.470111	0.264106	0.995569
445	H	0.478603	0.196426	0.330028
446	N	0.383811	0.196879	0.011322
447	H	0.373864	0.20948	0.022225
448	H	0.372843	0.174192	0.355529
449	H	0.482513	0.289471	0.994695
450	C	0.303497	0.267846	0.332018
451	C	0.324409	0.256088	0.348345
452	C	0.308343	0.222922	0.031357
453	H	0.315257	0.290826	0.317374
454	N	0.324606	0.213103	0.060636
455	H	0.312697	0.191929	0.076464
456	H	0.34568	0.229214	0.40738
457	C	0.308264	0.09065	0.031391
458	C	0.324636	0.074387	0.013403
459	C	0.304339	0.04206	0.996224
460	N	0.324911	0.117009	0.06013
461	H	0.34669	0.122892	0.071993
462	H	0.313127	0.126148	0.409911
463	H	0.316454	0.03171	0.980397
464	C	0.35824	0.27031	0.001103
465	C	0.385247	0.285973	0.031839
466	C	0.414682	0.284186	0.025627
467	C	0.41683	0.265596	0.98914
468	N	0.39025	0.252373	0.293776
469	H	0.431362	0.291212	0.051656
470	H	0.381887	0.294723	0.061925
471	N	0.363327	0.254431	0.299342
472	C	0.414104	0.1586	0.988432
473	C	0.414312	0.13667	0.021492
474	C	0.385607	0.104907	0.026965
475	C	0.357807	0.094434	0.997989
476	N	0.361047	0.116491	0.298689
477	H	0.383342	0.091586	0.055591
478	H	0.431848	0.145524	0.046542
479	N	0.38707	0.146065	0.294112
480	C	0.488415	0.246661	0.663605
481	C	0.468105	0.211124	0.662542
482	C	0.432954	0.193853	0.659646
483	C	0.416309	0.212566	0.330129
484	C	0.434724	0.248036	0.326607
485	C	0.470111	0.264106	0.328903
486	H	0.478603	0.196426	0.663362
487	N	0.383811	0.196879	0.344656
488	H	0.373864	0.20948	0.35556
489	H	0.372843	0.174192	0.688864
490	H	0.482513	0.289471	0.328028
491	C	0.303497	0.267846	0.665353
492	C	0.324409	0.256088	0.681679
493	C	0.308343	0.222922	0.364691
494	H	0.315257	0.290826	0.650707
495	N	0.324606	0.213103	0.39397
496	H	0.312697	0.191929	0.409796
497	H	0.34568	0.229214	0.740715
498	C	0.308264	0.09065	0.364725
499	C	0.324636	0.074387	0.346738
500	C	0.304339	0.04206	0.329558
501	N	0.324911	0.117009	0.393463
502	H	0.34669	0.122892	0.405325
503	H	0.313127	0.126148	0.743246
504	H	0.316454	0.03171	0.313731
505	C	0.35824	0.27031	0.334437
506	C	0.385247	0.285973	0.365174
507	C	0.414682	0.284186	0.358961
508	C	0.41683	0.265596	0.322473
509	N	0.39025	0.252373	0.627108
510	H	0.431362	0.291212	0.38499
511	H	0.381887	0.294723	0.395259
512	N	0.363327	0.254431	0.632676
513	C	0.414104	0.1586	0.321764
514	C	0.414312	0.13667	0.354824
515	C	0.385607	0.104907	0.360298
516	C	0.357807	0.094434	0.331322
517	N	0.361047	0.116491	0.632022
518	H	0.383342	0.091586	0.388924
519	H	0.431848	0.145524	0.379874
520	N	0.38707	0.146065	0.627446
521	C	0.488415	0.246661	0.996939
522	C	0.468105	0.211124	0.995873
523	C	0.432954	0.193853	0.992981
524	C	0.416309	0.212566	0.663463
525	C	0.434724	0.248036	0.65994
526	C	0.470111	0.264106	0.662235
527	H	0.478603	0.196426	0.996693
528	N	0.383811	0.196879	0.677987
529	H	0.373864	0.20948	0.688891
530	H	0.372843	0.174192	0.022195
531	H	0.482513	0.289471	0.661361
532	C	0.303497	0.267846	0.998684
533	C	0.324409	0.256088	0.015011
534	C	0.308343	0.222922	0.698022
535	H	0.315257	0.290826	0.984041
536	N	0.324606	0.213103	0.727304
537	H	0.312697	0.191929	0.743131
538	H	0.34568	0.229214	0.074046
539	C	0.308264	0.09065	0.698056
540	C	0.324636	0.074387	0.680069
541	C	0.304339	0.04206	0.662893
542	N	0.324911	0.117009	0.726798
543	H	0.34669	0.122892	0.73866
544	H	0.313127	0.126148	0.076578
545	H	0.316454	0.03171	0.647066
546	C	0.35824	0.27031	0.667769
547	C	0.385247	0.285973	0.698505
548	C	0.414682	0.284186	0.692292
549	C	0.41683	0.265596	0.655806
550	N	0.39025	0.252373	0.960443
551	H	0.431362	0.291212	0.718321
552	H	0.381887	0.294723	0.728593
553	N	0.363327	0.254431	0.966007
554	C	0.414104	0.1586	0.655097
555	C	0.414312	0.13667	0.688158
556	C	0.385607	0.104907	0.693632
557	C	0.357807	0.094434	0.664654
558	N	0.361047	0.116491	0.965356
559	H	0.383342	0.091586	0.722259
560	H	0.431848	0.145524	0.713208
561	N	0.38707	0.146065	0.96078
562	C	0.488415	0.746661	0.330272
563	C	0.468104	0.711123	0.329207
564	C	0.432953	0.693851	0.326314
565	C	0.416309	0.712566	0.996794
566	C	0.434725	0.748036	0.993274
567	C	0.470112	0.764107	0.995569
568	H	0.478603	0.696425	0.330028
569	N	0.383811	0.696879	0.011322
570	H	0.373863	0.709481	0.022225
571	H	0.372843	0.674193	0.355529
572	H	0.482511	0.789469	0.994695
573	C	0.303496	0.767847	0.332018
574	C	0.324409	0.756089	0.348345
575	C	0.308343	0.722923	0.031357
576	H	0.315255	0.790824	0.317374
577	N	0.324604	0.713101	0.060636
578	H	0.312698	0.69193	0.076464
579	H	0.345679	0.729214	0.40738
580	C	0.308263	0.59065	0.031391
581	C	0.324636	0.574387	0.013403
582	C	0.304338	0.542061	0.996224
583	N	0.324911	0.617008	0.06013
584	H	0.346689	0.622891	0.071993
585	H	0.313126	0.626147	0.409911
586	H	0.316455	0.531711	0.980397
587	C	0.358239	0.770311	0.001103
588	C	0.385247	0.78597	0.031839
589	C	0.414682	0.784186	0.025627
590	C	0.41683	0.765597	0.98914
591	N	0.39025	0.752374	0.293776
592	H	0.431363	0.791213	0.051656
593	H	0.381886	0.794723	0.061925
594	N	0.363326	0.754429	0.299342
595	C	0.414105	0.6586	0.988432
596	C	0.414311	0.636669	0.021492
597	C	0.385606	0.604906	0.026965
598	C	0.357806	0.594434	0.997989
599	N	0.361047	0.61649	0.298689
600	H	0.383342	0.591586	0.055591
601	H	0.431848	0.645524	0.046542
602	N	0.387069	0.646065	0.294112
603	C	0.488415	0.746661	0.663605
604	C	0.468104	0.711123	0.662542
605	C	0.432953	0.693851	0.659646
606	C	0.416309	0.712566	0.330129
607	C	0.434725	0.748036	0.326608
608	C	0.470112	0.764107	0.328903
609	H	0.478603	0.696425	0.663362
610	N	0.383811	0.696879	0.344656
611	H	0.373863	0.709481	0.35556
612	H	0.372843	0.674193	0.688864
613	H	0.482511	0.789469	0.328028
614	C	0.303496	0.767847	0.665353
615	C	0.324409	0.756089	0.681679
616	C	0.308343	0.722923	0.364691
617	H	0.315255	0.790824	0.650707
618	N	0.324604	0.713101	0.39397
619	H	0.312698	0.69193	0.409796
620	H	0.345679	0.729214	0.740715
621	C	0.308263	0.59065	0.364725
622	C	0.324636	0.574387	0.346738
623	C	0.304338	0.542061	0.329558
624	N	0.324911	0.617008	0.393463
625	H	0.346689	0.622891	0.405325
626	H	0.313126	0.626147	0.743246
627	H	0.316455	0.531711	0.313731
628	C	0.358239	0.770311	0.334437
629	C	0.385247	0.78597	0.365174
630	C	0.414682	0.784186	0.358961
631	C	0.41683	0.765597	0.322473
632	N	0.39025	0.752374	0.627108
633	H	0.431363	0.791213	0.38499
634	H	0.381886	0.794723	0.395259
635	N	0.363326	0.754429	0.632676
636	C	0.414105	0.6586	0.321764
637	C	0.414311	0.636669	0.354824
638	C	0.385606	0.604906	0.360298
639	C	0.357806	0.594434	0.331322
640	N	0.361047	0.61649	0.632022
641	H	0.383342	0.591586	0.388924
642	H	0.431848	0.645524	0.379874
643	N	0.387069	0.646065	0.627446
644	C	0.488415	0.746661	0.996939
645	C	0.468104	0.711123	0.995873
646	C	0.432953	0.693851	0.992981
647	C	0.416309	0.712566	0.663463
648	C	0.434725	0.748036	0.65994
649	C	0.470112	0.764107	0.662235
650	H	0.478603	0.696425	0.996693
651	N	0.383811	0.696879	0.677987
652	H	0.373863	0.709481	0.688891
653	H	0.372843	0.674193	0.022196
654	H	0.482511	0.789469	0.661361
655	C	0.303496	0.767847	0.998684
656	C	0.324409	0.756089	0.015011
657	C	0.308343	0.722923	0.698022
658	H	0.315255	0.790824	0.984041
659	N	0.324604	0.713101	0.727304
660	H	0.312698	0.69193	0.743131
661	H	0.345679	0.729214	0.074046
662	C	0.308263	0.59065	0.698056
663	C	0.324636	0.574387	0.680069
664	C	0.304338	0.542061	0.662893
665	N	0.324911	0.617008	0.726798
666	H	0.346689	0.622891	0.73866
667	H	0.313126	0.626147	0.076578
668	H	0.316455	0.531711	0.647066
669	C	0.358239	0.770311	0.667769
670	C	0.385247	0.78597	0.698505
671	C	0.414682	0.784186	0.692296
672	C	0.41683	0.765597	0.655806
673	N	0.39025	0.752374	0.960443
674	H	0.431363	0.791213	0.718321
675	H	0.381886	0.794723	0.728593
676	N	0.363326	0.754429	0.966007
677	C	0.414105	0.6586	0.655097
678	C	0.414311	0.636669	0.688158
679	C	0.385606	0.604906	0.693632
680	C	0.357806	0.594434	0.664654
681	N	0.361047	0.61649	0.965356
682	H	0.383342	0.591586	0.722259
683	H	0.431848	0.645524	0.713208
684	N	0.387069	0.646065	0.96078
685	C	0.988415	0.246661	0.330272
686	C	0.968105	0.211124	0.329207
687	C	0.932954	0.193853	0.326314
688	C	0.916309	0.212566	0.996794
689	C	0.934726	0.248036	0.993274
690	C	0.970113	0.264106	0.995569
691	H	0.978605	0.196426	0.330028
692	N	0.883811	0.196879	0.011322
693	C	0.524438	0.26291	0.334033
694	C	0.542091	0.244807	0.997928
695	C	0.57549	0.257837	0.012126
696	C	0.592802	0.291698	0.02573
697	C	0.58051	0.313325	0.346529
698	C	0.545705	0.298286	0.338734
699	N	0.620115	0.303302	0.053156
700	H	0.536651	0.313986	0.333305
701	H	0.625815	0.28807	0.067607
702	H	0.629304	0.325011	0.400817
703	H	0.873864	0.20948	0.022225
704	H	0.872843	0.174192	0.355529
705	H	0.982513	0.289471	0.994695
706	H	0.530743	0.22108	0.985864
707	C	0.767844	0.249458	0.336064
708	C	0.803497	0.267846	0.332018
709	C	0.824409	0.256088	0.348345
710	C	0.808344	0.222922	0.031357
711	C	0.774703	0.200143	0.018489
712	C	0.754284	0.214299	0.009214
713	H	0.815257	0.290826	0.317374
714	N	0.824606	0.213103	0.060636
715	C	0.747924	0.265452	0.331528
716	C	0.763173	0.300957	0.99806
717	C	0.745508	0.318333	0.993743
718	C	0.709989	0.299664	0.99459
719	C	0.692968	0.264069	0.325432
720	C	0.71225	0.247997	0.32916
721	N	0.692687	0.315677	0.004977
722	H	0.699432	0.222607	0.328513
723	H	0.703813	0.338555	0.014913
724	H	0.669588	0.303675	0.346414
725	H	0.812697	0.191929	0.076464
726	H	0.84568	0.229214	0.40738
727	H	0.729509	0.198214	0.004515
728	H	0.788311	0.315548	0.00138
729	C	0.768988	0.023901	0.336007
730	C	0.754449	0.044539	0.343674
731	C	0.774465	0.079352	0.352236
732	C	0.808264	0.09065	0.031391
733	C	0.824636	0.074387	0.013403
734	C	0.804339	0.04206	0.996224
735	H	0.72935	0.03482	0.340563
736	N	0.824914	0.117009	0.06013
737	C	0.750853	0.487891	0.336619
738	C	0.715325	0.467799	0.007581
739	C	0.699258	0.4328	0.015202
740	C	0.719922	0.419639	0.028944
741	C	0.753965	0.436313	0.350049
742	C	0.768181	0.469523	0.335394
743	N	0.707325	0.391639	0.05518
744	H	0.79269	0.480439	0.32719
745	H	0.685275	0.382168	0.068544
746	H	0.721787	0.38461	0.402318
747	H	0.84669	0.122892	0.071993
748	H	0.813127	0.126148	0.409911
749	H	0.816456	0.03171	0.980397
750	H	0.700651	0.477995	0.001319
751	C	0.657454	0.246019	0.988553
752	C	0.637625	0.230037	0.026975
753	C	0.606633	0.228771	0.032936
754	C	0.594577	0.242564	0.000307
755	N	0.614687	0.256071	0.297003
756	H	0.595309	0.222041	0.063824
757	H	0.647841	0.22466	0.054035
758	N	0.643432	0.257501	0.291489
759	C	0.768286	0.416794	0.003678
760	C	0.782699	0.404906	0.035471
761	C	0.780546	0.373632	0.029062
762	C	0.762686	0.353729	0.991607
763	N	0.75093	0.367707	0.295063
764	H	0.786526	0.363319	0.055397
765	H	0.790461	0.41646	0.066094
766	N	0.753426	0.396784	0.300779
767	C	0.604499	0.347575	0.005747
768	C	0.604757	0.37707	0.01947
769	C	0.635452	0.408066	0.019788
770	C	0.665226	0.409005	0.005916
771	N	0.660935	0.380471	0.320143
772	H	0.636731	0.428063	0.036212
773	H	0.584464	0.375406	0.035523
774	N	0.633235	0.352401	0.32011
775	C	0.85824	0.27031	0.001103
776	C	0.88525	0.285973	0.031839
777	C	0.914684	0.284186	0.025627
778	C	0.91683	0.265596	0.98914
779	N	0.89025	0.252373	0.293776
780	H	0.931364	0.291212	0.051656
781	H	0.881887	0.294723	0.061925
782	N	0.863327	0.254431	0.299342
783	C	0.765243	0.104363	0.013394
784	C	0.73505	0.104606	0.020585
785	C	0.735168	0.135565	0.020454
786	C	0.76547	0.165906	0.013091
787	N	0.790999	0.161824	0.332134
788	H	0.714506	0.136174	0.031067
789	H	0.714303	0.083447	0.031292
790	N	0.790831	0.13393	0.332246
791	C	0.914106	0.1586	0.988432
792	C	0.914312	0.13667	0.021492
793	C	0.885607	0.104907	0.026965
794	C	0.857807	0.094434	0.997989
795	N	0.861047	0.116491	0.298689
796	H	0.883342	0.091586	0.055591
797	H	0.931848	0.145524	0.046542
798	N	0.88707	0.146065	0.294112
799	C	0.988415	0.246661	0.663605
800	C	0.968105	0.211124	0.662542
801	C	0.932954	0.193853	0.659646
802	C	0.916309	0.212566	0.330129
803	C	0.934726	0.248036	0.326607
804	C	0.970113	0.264106	0.328903
805	H	0.978605	0.196426	0.663362
806	N	0.883811	0.196879	0.344656
807	C	0.524438	0.26291	0.667367
808	C	0.542091	0.244807	0.33126
809	C	0.57549	0.257837	0.345459
810	C	0.592802	0.291698	0.359063
811	C	0.58051	0.313325	0.679864
812	C	0.545705	0.298286	0.672065
813	N	0.620115	0.303302	0.386488
814	H	0.536651	0.313986	0.666638
815	H	0.625815	0.28807	0.400941
816	H	0.629304	0.325011	0.734148
817	H	0.873864	0.20948	0.35556
818	H	0.872843	0.174192	0.688864
819	H	0.982513	0.289471	0.328028
820	H	0.530743	0.22108	0.319196
821	C	0.767844	0.249458	0.669396
822	C	0.803497	0.267846	0.665353
823	C	0.824409	0.256088	0.681679
824	C	0.808344	0.222922	0.364691
825	C	0.774703	0.200143	0.351824
826	C	0.754284	0.214299	0.342547
827	H	0.815257	0.290826	0.650707
828	N	0.824606	0.213103	0.39397
829	C	0.747924	0.265452	0.66486
830	C	0.763173	0.300957	0.331392
831	C	0.745508	0.318333	0.327078
832	C	0.709989	0.299664	0.327922
833	C	0.692968	0.264069	0.658766
834	C	0.71225	0.247997	0.662494
835	N	0.692687	0.315677	0.338309
836	H	0.699432	0.222607	0.661847
837	H	0.703813	0.338555	0.348247
838	H	0.669588	0.303675	0.679749
839	H	0.812697	0.191929	0.409796
840	H	0.84568	0.229214	0.740715
841	H	0.729509	0.198214	0.337846
842	H	0.788311	0.315548	0.334712
843	C	0.768988	0.023901	0.669342
844	C	0.754449	0.044539	0.677005
845	C	0.774465	0.079352	0.68557
846	C	0.808264	0.09065	0.364725
847	C	0.824636	0.074387	0.346738
848	C	0.804339	0.04206	0.329558
849	H	0.72935	0.03482	0.673897
850	N	0.824914	0.117009	0.393463
851	C	0.750853	0.487891	0.669952
852	C	0.715325	0.467799	0.340914
853	C	0.699258	0.4328	0.348534
854	C	0.719922	0.419639	0.362279
855	C	0.753965	0.436313	0.683383
856	C	0.768181	0.469523	0.668727
857	N	0.707325	0.391639	0.388513
858	H	0.79269	0.480439	0.660524
859	H	0.685275	0.382168	0.401876
860	H	0.721787	0.38461	0.735653
861	H	0.84669	0.122892	0.405325
862	H	0.813127	0.126148	0.743246
863	H	0.816456	0.03171	0.313731
864	H	0.700651	0.477995	0.334653
865	C	0.657454	0.246019	0.321886
866	C	0.637625	0.230037	0.360308
867	C	0.606633	0.228771	0.366271
868	C	0.594577	0.242564	0.333642
869	N	0.614687	0.256071	0.630334
870	H	0.595309	0.222041	0.397159
871	H	0.647841	0.22466	0.387369
872	N	0.643432	0.257501	0.624824
873	C	0.768286	0.416794	0.337012
874	C	0.782699	0.404906	0.368805
875	C	0.780546	0.373632	0.362397
876	C	0.762686	0.353729	0.32494
877	N	0.75093	0.367707	0.628397
878	H	0.786526	0.363319	0.388732
879	H	0.790461	0.41646	0.399426
880	N	0.753426	0.396784	0.634111
881	C	0.604499	0.347575	0.339081
882	C	0.604757	0.37707	0.352803
883	C	0.635452	0.408066	0.35312
884	C	0.665226	0.409005	0.33925
885	N	0.660935	0.380471	0.653477
886	H	0.636731	0.428063	0.369544
887	H	0.584464	0.375406	0.368856
888	N	0.633235	0.352401	0.653444
889	C	0.85824	0.27031	0.334437
890	C	0.88525	0.285973	0.365174
891	C	0.914684	0.284186	0.358961
892	C	0.91683	0.265596	0.322473
893	N	0.89025	0.252373	0.627108
894	H	0.931364	0.291212	0.38499
895	H	0.881887	0.294723	0.395259
896	N	0.863327	0.254431	0.632676
897	C	0.765243	0.104363	0.346728
898	C	0.73505	0.104606	0.35392
899	C	0.735168	0.135565	0.353788
900	C	0.76547	0.165906	0.346425
901	N	0.790999	0.161824	0.665468
902	H	0.714506	0.136174	0.364401
903	H	0.714303	0.083447	0.364627
904	N	0.790831	0.13393	0.665579
905	C	0.914106	0.1586	0.321764
906	C	0.914312	0.13667	0.354824
907	C	0.885607	0.104907	0.360298
908	C	0.857807	0.094434	0.331322
909	N	0.861047	0.116491	0.632022
910	H	0.883342	0.091586	0.388924
911	H	0.931848	0.145524	0.379874
912	N	0.88707	0.146065	0.627446
913	C	0.988415	0.246661	0.996939
914	C	0.968105	0.211124	0.995873
915	C	0.932954	0.193853	0.992981
916	C	0.916309	0.212566	0.663463
917	C	0.934726	0.248036	0.65994
918	C	0.970113	0.264106	0.662235
919	H	0.978605	0.196426	0.996693
920	N	0.883811	0.196879	0.677987
921	C	0.524438	0.26291	0.000698
922	C	0.542091	0.244807	0.664593
923	C	0.57549	0.257837	0.678794
924	C	0.592802	0.291698	0.692397
925	C	0.58051	0.313325	0.013196
926	C	0.545705	0.298286	0.005399
927	N	0.620115	0.303302	0.719822
928	H	0.536651	0.313986	0.999973
929	H	0.625815	0.28807	0.734273
930	H	0.629304	0.325011	0.067482
931	H	0.873864	0.20948	0.688891
932	H	0.872843	0.174192	0.022195
933	H	0.982513	0.289471	0.661361
934	H	0.530743	0.22108	0.652529
935	C	0.767844	0.249458	0.00273
936	C	0.803497	0.267846	0.998684
937	C	0.824409	0.256088	0.015011
938	C	0.808344	0.222922	0.698022
939	C	0.774703	0.200143	0.685155
940	C	0.754284	0.214299	0.675882
941	H	0.815257	0.290826	0.984041
942	N	0.824606	0.213103	0.727304
943	C	0.747924	0.265452	0.998195
944	C	0.763173	0.300957	0.664725
945	C	0.745508	0.318333	0.660412
946	C	0.709989	0.299664	0.661256
947	C	0.692968	0.264069	0.9921
948	C	0.71225	0.247997	0.995826
949	N	0.692687	0.315677	0.671643
950	H	0.699432	0.222607	0.995181
951	H	0.703813	0.338555	0.681581
952	H	0.669588	0.303675	0.013081
953	H	0.812697	0.191929	0.743131
954	H	0.84568	0.229214	0.074046
955	H	0.729509	0.198214	0.671181
956	H	0.788311	0.315548	0.668046
957	C	0.768988	0.023901	0.002673
958	C	0.754449	0.044539	0.01034
959	C	0.774465	0.079352	0.018903
960	C	0.808264	0.09065	0.698056
961	C	0.824636	0.074387	0.680069
962	C	0.804339	0.04206	0.662893
963	H	0.72935	0.03482	0.00723
964	N	0.824914	0.117009	0.726798
965	C	0.750853	0.487891	0.003287
966	C	0.715325	0.467799	0.674248
967	C	0.699258	0.4328	0.681868
968	C	0.719922	0.419639	0.69561
969	C	0.753965	0.436313	0.016716
970	C	0.768181	0.469523	0.002062
971	N	0.707325	0.391639	0.721847
972	H	0.79269	0.480439	0.993858
973	H	0.685275	0.382168	0.735211
974	H	0.721787	0.38461	0.068985
975	H	0.84669	0.122892	0.73866
976	H	0.813127	0.126148	0.076578
977	H	0.816456	0.03171	0.647066
978	H	0.700651	0.477995	0.667985
979	C	0.657454	0.246019	0.655219
980	C	0.637625	0.230037	0.693642
981	C	0.606633	0.228771	0.699602
982	C	0.594577	0.242564	0.666976
983	N	0.614687	0.256071	0.963669
984	H	0.595309	0.222041	0.73049
985	H	0.647841	0.22466	0.720703
986	N	0.643432	0.257501	0.958155
987	C	0.768286	0.416794	0.670347
988	C	0.782699	0.404906	0.702136
989	C	0.780546	0.373632	0.695728
990	C	0.762686	0.353729	0.658273
991	N	0.75093	0.367707	0.961728
992	H	0.786526	0.363319	0.722063
993	H	0.790461	0.41646	0.732761
994	N	0.753426	0.396784	0.967445
995	C	0.604499	0.347575	0.672412
996	C	0.604757	0.37707	0.686137
997	C	0.635452	0.408066	0.686454
998	C	0.665226	0.409005	0.672585
999	N	0.660935	0.380471	0.986809
1000	H	0.636731	0.428063	0.702879
1001	H	0.584464	0.375406	0.70219
1002	N	0.633235	0.352401	0.986778
1003	C	0.85824	0.27031	0.667769
1004	C	0.88525	0.285973	0.698505
1005	C	0.914684	0.284186	0.692292
1006	C	0.91683	0.265596	0.655806
1007	N	0.89025	0.252373	0.960443
1008	H	0.931364	0.291212	0.718321
1009	H	0.881887	0.294723	0.728593
1010	N	0.863327	0.254431	0.966007
1011	C	0.765243	0.104363	0.680059
1012	C	0.73505	0.104606	0.687251
1013	C	0.735168	0.135565	0.687119
1014	C	0.76547	0.165906	0.679759
1015	N	0.790999	0.161824	0.998802
1016	H	0.714506	0.136174	0.697732
1017	H	0.714303	0.083447	0.697958
1018	N	0.790831	0.13393	0.998913
1019	C	0.914106	0.1586	0.655097
1020	C	0.914312	0.13667	0.688158
1021	C	0.885607	0.104907	0.693632
1022	C	0.857807	0.094434	0.664654
1023	N	0.861047	0.116491	0.965356
1024	H	0.883342	0.091586	0.722259
1025	H	0.931848	0.145524	0.713208
1026	N	0.88707	0.146065	0.96078
1027	C	0.988416	0.746661	0.330272
1028	C	0.968105	0.711123	0.329207
1029	C	0.932952	0.693851	0.326314
1030	C	0.916308	0.712566	0.996794
1031	C	0.934725	0.748036	0.993274
1032	C	0.970113	0.764107	0.995569
1033	H	0.978603	0.696425	0.330028
1034	N	0.883812	0.696879	0.011322
1035	C	0.524438	0.762911	0.334033
1036	C	0.54209	0.744807	0.997928
1037	C	0.57549	0.757838	0.012126
1038	C	0.592803	0.791699	0.02573
1039	C	0.580509	0.813326	0.346529
1040	C	0.545706	0.798286	0.33873
1041	N	0.620114	0.803302	0.053155
1042	H	0.53665	0.813983	0.333305
1043	H	0.625815	0.788068	0.067607
1044	H	0.629301	0.825009	0.400813
1045	H	0.873863	0.709481	0.022225
1046	H	0.872844	0.674193	0.355529
1047	H	0.982511	0.789469	0.994695
1048	H	0.530742	0.721079	0.985864
1049	C	0.767846	0.749459	0.336064
1050	C	0.803496	0.767847	0.332018
1051	C	0.82441	0.756089	0.348345
1052	C	0.808343	0.722923	0.031357
1053	C	0.774702	0.700143	0.018489
1054	C	0.754285	0.714297	0.009214
1055	H	0.815257	0.790824	0.317374
1056	N	0.824605	0.713101	0.060636
1057	C	0.747925	0.765452	0.331528
1058	C	0.763172	0.800957	0.99806
1059	C	0.745507	0.818334	0.993743
1060	C	0.70999	0.799664	0.994587
1061	C	0.692967	0.764069	0.325432
1062	C	0.712248	0.747996	0.32916
1063	N	0.692685	0.815675	0.004974
1064	H	0.699431	0.722607	0.328513
1065	H	0.703813	0.838553	0.014912
1066	H	0.669585	0.803673	0.346414
1067	H	0.812699	0.69193	0.076464
1068	H	0.845679	0.729214	0.40738
1069	H	0.729507	0.698214	0.004515
1070	H	0.788313	0.815548	0.00138
1071	C	0.768986	0.5239	0.336007
1072	C	0.75445	0.544538	0.343674
1073	C	0.774466	0.579353	0.352236
1074	C	0.808263	0.59065	0.031391
1075	C	0.824635	0.574387	0.013403
1076	C	0.804338	0.542061	0.996224
1077	H	0.729351	0.53482	0.340563
1078	N	0.824912	0.617008	0.06013
1079	C	0.750852	0.987892	0.336619
1080	C	0.715324	0.967799	0.007581
1081	C	0.699257	0.9328	0.015202
1082	C	0.719921	0.919639	0.028944
1083	C	0.753966	0.936313	0.350049
1084	C	0.768179	0.969521	0.335395
1085	N	0.707324	0.891639	0.05518
1086	H	0.792688	0.980437	0.32719
1087	H	0.685274	0.882168	0.068544
1088	H	0.721785	0.884608	0.402318
1089	H	0.846688	0.622891	0.071993
1090	H	0.813125	0.626147	0.409911
1091	H	0.816456	0.531711	0.980397
1092	H	0.700651	0.977993	0.001319
1093	C	0.657453	0.746018	0.988553
1094	C	0.637627	0.730037	0.026975
1095	C	0.606631	0.728771	0.032936
1096	C	0.594579	0.742564	0.000307
1097	N	0.614687	0.756069	0.297003
1098	H	0.595309	0.722041	0.063824
1099	H	0.64784	0.72466	0.054035
1100	N	0.643433	0.757502	0.291489
1101	C	0.768287	0.916794	0.003678
1102	C	0.782698	0.904907	0.035471
1103	C	0.780545	0.873632	0.029062
1104	C	0.762685	0.853729	0.991607
1105	N	0.750932	0.867707	0.295063
1106	H	0.786526	0.863317	0.055398
1107	H	0.79046	0.91646	0.066095
1108	N	0.753425	0.896784	0.300779
1109	C	0.604499	0.847575	0.005747
1110	C	0.604757	0.877071	0.019471
1111	C	0.635453	0.908066	0.019788
1112	C	0.665226	0.909005	0.005916
1113	N	0.660934	0.880472	0.320142
1114	H	0.63673	0.928061	0.036213
1115	H	0.584462	0.875404	0.035524
1116	N	0.633232	0.852399	0.320109
1117	C	0.858239	0.770311	0.001103
1118	C	0.885247	0.78597	0.031839
1119	C	0.914683	0.784186	0.025627
1120	C	0.916831	0.765597	0.98914
1121	N	0.890251	0.752374	0.293776
1122	H	0.931363	0.791213	0.051656
1123	H	0.881886	0.794723	0.061925
1124	N	0.863327	0.754429	0.299342
1125	C	0.765242	0.604363	0.013394
1126	C	0.735049	0.604605	0.020585
1127	C	0.73517	0.635565	0.020454
1128	C	0.76547	0.665906	0.013091
1129	N	0.791	0.661824	0.332134
1130	H	0.714504	0.636173	0.031067
1131	H	0.714304	0.583446	0.031292
1132	N	0.790829	0.633928	0.332246
1133	C	0.914105	0.6586	0.988432
1134	C	0.914311	0.636669	0.021492
1135	C	0.885608	0.604906	0.026965
1136	C	0.857806	0.594434	0.997989
1137	N	0.861048	0.61649	0.298689
1138	H	0.883343	0.591586	0.055591
1139	H	0.931849	0.645524	0.046542
1140	N	0.887069	0.646065	0.294112
1141	C	0.988416	0.746661	0.663605
1142	C	0.968105	0.711123	0.662542
1143	C	0.932952	0.693851	0.659646
1144	C	0.916308	0.712566	0.330129
1145	C	0.934725	0.748036	0.326608
1146	C	0.970113	0.764107	0.328903
1147	H	0.978603	0.696425	0.663362
1148	N	0.883812	0.696879	0.344656
1149	C	0.524438	0.762911	0.667367
1150	C	0.54209	0.744807	0.33126
1151	C	0.57549	0.757838	0.345459
1152	C	0.592803	0.791699	0.359063
1153	C	0.580509	0.813326	0.679864
1154	C	0.545706	0.798286	0.672065
1155	N	0.620114	0.803302	0.386488
1156	H	0.53665	0.813983	0.666638
1157	H	0.625815	0.788068	0.400941
1158	H	0.629301	0.825009	0.734148
1159	H	0.873863	0.709481	0.35556
1160	H	0.872844	0.674193	0.688864
1161	H	0.982511	0.789469	0.328028
1162	H	0.530742	0.721079	0.319196
1163	C	0.767846	0.749459	0.669396
1164	C	0.803496	0.767847	0.665353
1165	C	0.82441	0.756089	0.681679
1166	C	0.808343	0.722923	0.364691
1167	C	0.774702	0.700143	0.351821
1168	C	0.754285	0.714297	0.342547
1169	H	0.815257	0.790824	0.650707
1170	N	0.824605	0.713101	0.39397
1171	C	0.747925	0.765452	0.66486
1172	C	0.763172	0.800957	0.331392
1173	C	0.745507	0.818334	0.327078
1174	C	0.70999	0.799664	0.327922
1175	C	0.692967	0.764069	0.658766
1176	C	0.712248	0.747996	0.662494
1177	N	0.692685	0.815675	0.338309
1178	H	0.699431	0.722607	0.661847
1179	H	0.703813	0.838553	0.348247
1180	H	0.669585	0.803673	0.679746
1181	H	0.812699	0.69193	0.409796
1182	H	0.845679	0.729214	0.740715
1183	H	0.729507	0.698214	0.337846
1184	H	0.788313	0.815548	0.334713
1185	C	0.768986	0.5239	0.669342
1186	C	0.75445	0.544538	0.677005
1187	C	0.774466	0.579353	0.68557
1188	C	0.808263	0.59065	0.364725
1189	C	0.824635	0.574387	0.346738
1190	C	0.804338	0.542061	0.329558
1191	H	0.729351	0.53482	0.673897
1192	N	0.824912	0.617008	0.393463
1193	C	0.750852	0.987892	0.669952
1194	C	0.715324	0.967799	0.340914
1195	C	0.699257	0.9328	0.348534
1196	C	0.719921	0.919639	0.362279
1197	C	0.753966	0.936313	0.683383
1198	C	0.768179	0.969521	0.668727
1199	N	0.707324	0.891639	0.388513
1200	H	0.792688	0.980437	0.660524
1201	H	0.685274	0.882168	0.401876
1202	H	0.721785	0.884608	0.735649
1203	H	0.846688	0.622891	0.405325
1204	H	0.813125	0.626147	0.743246
1205	H	0.816456	0.531711	0.313731
1206	H	0.700651	0.977993	0.334653
1207	C	0.657453	0.746018	0.321885
1208	C	0.637627	0.730037	0.360308
1209	C	0.606631	0.728771	0.366271
1210	C	0.594579	0.742564	0.333642
1211	N	0.614687	0.756069	0.630334
1212	H	0.595309	0.722041	0.397159
1213	H	0.64784	0.72466	0.387369
1214	N	0.643433	0.757502	0.624824
1215	C	0.768287	0.916794	0.337012
1216	C	0.782698	0.904907	0.368805
1217	C	0.780545	0.873632	0.362397
1218	C	0.762685	0.853729	0.32494
1219	N	0.750932	0.867707	0.628397
1220	H	0.786526	0.863317	0.388732
1221	H	0.79046	0.91646	0.399426
1222	N	0.753425	0.896784	0.634111
1223	C	0.604499	0.847575	0.339081
1224	C	0.604757	0.877071	0.352803
1225	C	0.635453	0.908066	0.353123
1226	C	0.665226	0.909005	0.33925
1227	N	0.660934	0.880472	0.653474
1228	H	0.63673	0.928061	0.369547
1229	H	0.584462	0.875404	0.368856
1230	N	0.633232	0.852399	0.653444
1231	C	0.858239	0.770311	0.334437
1232	C	0.885247	0.78597	0.365174
1233	C	0.914683	0.784186	0.358961
1234	C	0.916831	0.765597	0.322473
1235	N	0.890251	0.752374	0.627108
1236	H	0.931363	0.791213	0.38499
1237	H	0.881886	0.794723	0.395259
1238	N	0.863327	0.754429	0.632676
1239	C	0.765242	0.604363	0.346728
1240	C	0.735049	0.604605	0.35392
1241	C	0.73517	0.635565	0.353788
1242	C	0.76547	0.665906	0.346425
1243	N	0.791	0.661824	0.665468
1244	H	0.714504	0.636173	0.364401
1245	H	0.714304	0.583446	0.364627
1246	N	0.790829	0.633928	0.665579
1247	C	0.914105	0.6586	0.321764
1248	C	0.914311	0.636669	0.354824
1249	C	0.885608	0.604906	0.360298
1250	C	0.857806	0.594434	0.331322
1251	N	0.861048	0.61649	0.632022
1252	H	0.883343	0.591586	0.388924
1253	H	0.931849	0.645524	0.379874
1254	N	0.887069	0.646065	0.627446
1255	C	0.988416	0.746661	0.996939
1256	C	0.968105	0.711123	0.995873
1257	C	0.932952	0.693851	0.992981
1258	C	0.916308	0.712566	0.663463
1259	C	0.934725	0.748036	0.65994
1260	C	0.970113	0.764107	0.662235
1261	H	0.978603	0.696425	0.996693
1262	N	0.883812	0.696879	0.677987
1263	C	0.524438	0.762911	0.000698
1264	C	0.54209	0.744807	0.664593
1265	C	0.57549	0.757838	0.678794
1266	C	0.592803	0.791699	0.692397
1267	C	0.580509	0.813326	0.013196
1268	C	0.545706	0.798286	0.005399
1269	N	0.620114	0.803302	0.719822
1270	H	0.53665	0.813983	0.999973
1271	H	0.625815	0.788068	0.734273
1272	H	0.629301	0.825009	0.067481
1273	H	0.873863	0.709481	0.688891
1274	H	0.872844	0.674193	0.022196
1275	H	0.982511	0.789469	0.661361
1276	H	0.530742	0.721079	0.652529
1277	C	0.767846	0.749459	0.00273
1278	C	0.803496	0.767847	0.998684
1279	C	0.82441	0.756089	0.015011
1280	C	0.808343	0.722923	0.698022
1281	C	0.774702	0.700143	0.685155
1282	C	0.754285	0.714297	0.675882
1283	H	0.815257	0.790824	0.984041
1284	N	0.824605	0.713101	0.727304
1285	C	0.747925	0.765452	0.998195
1286	C	0.763172	0.800957	0.664725
1287	C	0.745507	0.818334	0.660412
1288	C	0.70999	0.799664	0.661256
1289	C	0.692967	0.764069	0.9921
1290	C	0.712248	0.747996	0.995826
1291	N	0.692685	0.815675	0.671643
1292	H	0.699431	0.722607	0.995181
1293	H	0.703813	0.838553	0.681578
1294	H	0.669585	0.803673	0.01308
1295	H	0.812699	0.69193	0.743131
1296	H	0.845679	0.729214	0.074046
1297	H	0.729507	0.698214	0.671181
1298	H	0.788313	0.815548	0.668046
1299	C	0.768986	0.5239	0.002673
1300	C	0.75445	0.544538	0.01034
1301	C	0.774466	0.579353	0.018903
1302	C	0.808263	0.59065	0.698056
1303	C	0.824635	0.574387	0.680069
1304	C	0.804338	0.542061	0.662893
1305	H	0.729351	0.53482	0.00723
1306	N	0.824912	0.617008	0.726798
1307	C	0.750852	0.987892	0.003287
1308	C	0.715324	0.967799	0.674248
1309	C	0.699257	0.9328	0.681868
1310	C	0.719921	0.919639	0.69561
1311	C	0.753966	0.936313	0.016716
1312	C	0.768179	0.969521	0.002062
1313	N	0.707324	0.891639	0.721847
1314	H	0.792688	0.980437	0.993858
1315	H	0.685274	0.882168	0.735211
1316	H	0.721785	0.884608	0.068984
1317	H	0.846688	0.622891	0.73866
1318	H	0.813125	0.626147	0.076578
1319	H	0.816456	0.531711	0.647066
1320	H	0.700651	0.977993	0.667985
1321	C	0.657453	0.746018	0.655219
1322	C	0.637627	0.730037	0.693642
1323	C	0.606631	0.728771	0.699602
1324	C	0.594579	0.742564	0.666976
1325	N	0.614687	0.756069	0.963669
1326	H	0.595309	0.722041	0.73049
1327	H	0.64784	0.72466	0.720703
1328	N	0.643433	0.757502	0.958155
1329	C	0.768287	0.916794	0.670347
1330	C	0.782698	0.904907	0.702136
1331	C	0.780545	0.873632	0.695728
1332	C	0.762685	0.853729	0.658273
1333	N	0.750932	0.867707	0.961728
1334	H	0.786526	0.863317	0.722063
1335	H	0.79046	0.91646	0.732761
1336	N	0.753425	0.896784	0.967445
1337	C	0.604499	0.847575	0.672412
1338	C	0.604757	0.877071	0.686137
1339	C	0.635453	0.908066	0.686454
1340	C	0.665226	0.909005	0.672585
1341	N	0.660934	0.880472	0.986809
1342	H	0.63673	0.928061	0.702879
1343	H	0.584462	0.875404	0.70219
1344	N	0.633232	0.852399	0.986775
1345	C	0.858239	0.770311	0.667769
1346	C	0.885247	0.78597	0.698505
1347	C	0.914683	0.784186	0.692296
1348	C	0.916831	0.765597	0.655806
1349	N	0.890251	0.752374	0.960443
1350	H	0.931363	0.791213	0.718321
1351	H	0.881886	0.794723	0.728593
1352	N	0.863327	0.754429	0.966007
1353	C	0.765242	0.604363	0.680059
1354	C	0.735049	0.604605	0.687251
1355	C	0.73517	0.635565	0.687119
1356	C	0.76547	0.665906	0.679759
1357	N	0.791	0.661824	0.998802
1358	H	0.714504	0.636173	0.697732
1359	H	0.714304	0.583446	0.697958
1360	N	0.790829	0.633928	0.998913
1361	C	0.914105	0.6586	0.655097
1362	C	0.914311	0.636669	0.688158
1363	C	0.885608	0.604906	0.693632
1364	C	0.857806	0.594434	0.664654
1365	N	0.861048	0.61649	0.965356
1366	H	0.883343	0.591586	0.722259
1367	H	0.931849	0.645524	0.713208
1368	N	0.887069	0.646065	0.96078
