data_C720H360N144O144_2018-02-15_10:35:25
#******************************************
#
# CIF file created by Zeo++
# Zeo++ is an open source package to
# analyze microporous materials
#
#*******************************************

_cell_length_a		46.0558   
_cell_length_b		46.0558   
_cell_length_c		29.845   
_cell_angle_alpha		90   
_cell_angle_beta		90   
_cell_angle_gamma		120   

_symmetry_space_group_name_H-M		'P1'
_symmetry_Int_Tables_number		1
_symmetry_cell_setting		Monoclinic

loop_
_symmetry_equiv_pos_as_xyz
'+x,+y,+z'

loop_
_atom_site_label
_atom_site_type_symbol
_atom_site_fract_x
_atom_site_fract_y
_atom_site_fract_z
1	C	0.022038	0.261669	0.324678
2	C	0.042246	0.297659	0.32141
3	C	0.040532	0.244764	0.999397
4	H	0.028687	0.219578	0.004329
5	O	0.03053	0.317408	0.304759
6	C	0.022038	0.261669	0.65801
7	C	0.042246	0.297659	0.654743
8	C	0.040532	0.244764	0.33273
9	H	0.028687	0.219578	0.337661
10	O	0.03053	0.317408	0.638094
11	C	0.022038	0.261669	0.991346
12	C	0.042246	0.297659	0.988075
13	C	0.040532	0.244764	0.666062
14	H	0.028687	0.219578	0.670994
15	O	0.03053	0.317408	0.971426
16	C	0.022036	0.761668	0.324678
17	C	0.042248	0.797661	0.32141
18	C	0.040532	0.744764	0.999397
19	H	0.028686	0.719577	0.004329
20	O	0.030531	0.81741	0.304759
21	C	0.022036	0.761668	0.65801
22	C	0.042248	0.797661	0.654743
23	C	0.040532	0.744764	0.33273
24	H	0.028686	0.719577	0.337661
25	O	0.030531	0.81741	0.638094
26	C	0.022036	0.761668	0.991346
27	C	0.042248	0.797661	0.988075
28	C	0.040532	0.744764	0.666062
29	H	0.028686	0.719577	0.670994
30	O	0.030531	0.81741	0.971426
31	H	0.026679	0.312364	0.272536
32	H	0.026679	0.312364	0.605867
33	H	0.026679	0.312364	0.939203
34	H	0.026679	0.812363	0.272536
35	H	0.026679	0.812363	0.605867
36	H	0.026679	0.812363	0.939203
37	C	0.076322	0.315247	0.335108
38	C	0.07542	0.261381	0.006886
39	C	0.076322	0.315247	0.668441
40	C	0.07542	0.261381	0.340218
41	C	0.076322	0.315247	0.001773
42	C	0.07542	0.261381	0.673554
43	C	0.07632	0.815246	0.335108
44	C	0.075419	0.761379	0.006886
45	C	0.07632	0.815246	0.668441
46	C	0.075419	0.761379	0.340218
47	C	0.07632	0.815246	0.001773
48	C	0.075419	0.761379	0.673554
49	C	0.092689	0.296694	0.009811
50	C	0.11383	0.250021	0.049442
51	C	0.105219	0.236384	0.304728
52	C	0.093581	0.244106	0.34449
53	H	0.108925	0.258595	0.078493
54	H	0.093723	0.234691	0.274711
55	N	0.113501	0.362152	0.04542
56	C	0.095483	0.350488	0.006935
57	N	0.108061	0.3703	0.30336
58	C	0.092689	0.296694	0.343143
59	C	0.11383	0.250021	0.382774
60	C	0.105219	0.236384	0.63806
61	C	0.093581	0.244106	0.677822
62	H	0.108925	0.258595	0.411825
63	H	0.093723	0.234691	0.608045
64	N	0.113501	0.362152	0.378754
65	C	0.095483	0.350488	0.340268
66	N	0.108061	0.3703	0.636693
67	C	0.092689	0.296694	0.676475
68	C	0.11383	0.250021	0.71611
69	C	0.105219	0.236384	0.971396
70	C	0.093581	0.244106	0.011155
71	H	0.108925	0.258595	0.74516
72	H	0.093723	0.234691	0.941377
73	N	0.113501	0.362152	0.712086
74	C	0.095483	0.350488	0.673601
75	N	0.108061	0.3703	0.970026
76	C	0.09269	0.796695	0.009811
77	C	0.113829	0.750019	0.049442
78	C	0.105219	0.736383	0.304728
79	C	0.093581	0.744105	0.34449
80	H	0.108926	0.758596	0.078493
81	H	0.093723	0.73469	0.274711
82	N	0.113499	0.86215	0.04542
83	C	0.095483	0.850487	0.006935
84	N	0.108062	0.870301	0.30336
85	C	0.09269	0.796695	0.343143
86	C	0.113829	0.750019	0.382774
87	C	0.105219	0.736383	0.63806
88	C	0.093581	0.744105	0.677822
89	H	0.108926	0.758596	0.411825
90	H	0.093723	0.73469	0.608045
91	N	0.113499	0.86215	0.378754
92	C	0.095483	0.850487	0.340268
93	N	0.108062	0.870301	0.636693
94	C	0.09269	0.796695	0.676479
95	C	0.113829	0.750019	0.71611
96	C	0.105219	0.736383	0.971396
97	C	0.093581	0.744105	0.011155
98	H	0.108926	0.758596	0.74516
99	H	0.093723	0.73469	0.941377
100	N	0.113499	0.86215	0.712086
101	C	0.095483	0.850487	0.673601
102	N	0.108062	0.870301	0.970026
103	C	0.485662	0.243455	0.324779
104	C	0.467174	0.260353	0.999558
105	C	0.432315	0.243748	0.00725
106	C	0.415062	0.208438	0.010338
107	C	0.431418	0.189882	0.335517
108	C	0.465448	0.20746	0.321606
109	H	0.479009	0.285565	0.00423
110	O	0.38096	0.191738	0.014528
111	O	0.126805	0.313382	0.01383
112	O	0.477133	0.187705	0.304876
113	H	0.980895	0.192718	0.272636
114	H	0.526678	0.312364	0.272536
115	H	0.372337	0.188258	0.316994
116	H	0.135353	0.316874	0.316253
117	C	0.263041	0.243601	0.324732
118	C	0.24618	0.208203	0.999421
119	C	0.262827	0.189938	0.00666
120	C	0.298144	0.207992	0.009472
121	C	0.31666	0.24293	0.334913
122	C	0.299037	0.25943	0.321424
123	H	0.220987	0.194827	0.004258
124	O	0.314884	0.190609	0.01336
125	C	0.244763	0.261699	0.324762
126	C	0.208768	0.24587	0.321467
127	C	0.191135	0.262318	0.335142
128	C	0.209645	0.297246	0.009819
129	C	0.244957	0.31533	0.006877
130	C	0.261615	0.29709	0.999505
131	O	0.192917	0.314633	0.013828
132	H	0.286813	0.310481	0.004277
133	O	0.318768	0.29093	0.304876
134	O	0.189052	0.214401	0.304806
135	H	0.313753	0.289784	0.272646
136	H	0.194094	0.215612	0.272579
137	H	0.318274	0.185513	0.315756
138	H	0.189447	0.3197	0.316248
139	C	0.263008	0.020789	0.324705
140	C	0.298405	0.039308	0.999427
141	C	0.316684	0.074225	0.006645
142	C	0.298655	0.091527	0.009253
143	C	0.263715	0.0751	0.334723
144	C	0.247196	0.040963	0.321324
145	H	0.311736	0.027473	0.004546
146	O	0.316077	0.125654	0.013042
147	C	0.24488	0.484417	0.324753
148	C	0.260695	0.464244	0.321399
149	C	0.24417	0.430101	0.33479
150	C	0.209226	0.413674	0.009319
151	C	0.191201	0.430974	0.006647
152	C	0.209491	0.465899	0.999518
153	O	0.191839	0.379551	0.013158
154	H	0.196146	0.477737	0.004466
155	O	0.215688	0.029176	0.304782
156	O	0.292196	0.476027	0.30484
157	H	0.216827	0.525278	0.272561
158	H	0.291037	0.979877	0.272607
159	H	0.321109	0.134091	0.31541
160	H	0.186713	0.371092	0.315543
161	N	0.144231	0.252453	0.045543
162	C	0.155894	0.246191	0.006983
163	N	0.136074	0.239037	0.303421
164	C	0.256344	0.365178	0.049276
165	N	0.254026	0.393213	0.045373
166	C	0.26033	0.411011	0.006715
167	N	0.267311	0.398293	0.303088
168	C	0.269861	0.370037	0.304495
169	C	0.262196	0.350769	0.344343
170	H	0.247805	0.351747	0.078367
171	H	0.271476	0.360146	0.274512
172	C	0.141496	0.392539	0.049214
173	C	0.136283	0.401138	0.304609
174	C	0.15578	0.412824	0.344255
175	H	0.155024	0.397443	0.078223
176	H	0.146013	0.412631	0.274568
177	C	0.393821	0.255158	0.049562
178	N	0.363457	0.252789	0.045517
179	C	0.351891	0.259064	0.006877
180	N	0.371768	0.266142	0.30339
181	C	0.402603	0.268752	0.304845
182	C	0.414133	0.261015	0.344691
183	H	0.398655	0.246591	0.078673
184	H	0.414143	0.270401	0.27488
185	C	0.251544	0.140152	0.049059
186	N	0.253937	0.112163	0.045162
187	C	0.247599	0.094215	0.006617
188	N	0.240419	0.10688	0.303086
189	C	0.237794	0.135093	0.304436
190	C	0.245574	0.154509	0.344152
191	H	0.260145	0.153624	0.078112
192	H	0.236064	0.144884	0.27443
193	C	0.366186	0.112477	0.049366
194	N	0.394173	0.142895	0.045753
195	C	0.412254	0.15463	0.007333
196	N	0.399876	0.134954	0.303596
197	C	0.371674	0.104089	0.304624
198	C	0.352131	0.092395	0.344185
199	H	0.352556	0.107455	0.078302
200	H	0.361999	0.092665	0.274532
201	C	0.485662	0.243455	0.658114
202	C	0.467174	0.260353	0.332893
203	C	0.432315	0.243748	0.340583
204	C	0.415062	0.208438	0.343672
205	C	0.431418	0.189882	0.668849
206	C	0.465448	0.20746	0.654937
207	H	0.479009	0.285565	0.337564
208	O	0.38096	0.191738	0.347861
209	O	0.126805	0.313382	0.347164
210	O	0.477133	0.187705	0.638208
211	H	0.980895	0.192718	0.605971
212	H	0.526678	0.312364	0.605867
213	H	0.372337	0.188258	0.650327
214	H	0.135353	0.316874	0.649586
215	C	0.263041	0.243601	0.658064
216	C	0.24618	0.208203	0.332753
217	C	0.262827	0.189938	0.339993
218	C	0.298144	0.207992	0.342805
219	C	0.31666	0.24293	0.668246
220	C	0.299037	0.25943	0.654757
221	H	0.220987	0.194827	0.337591
222	O	0.314884	0.190609	0.346695
223	C	0.244763	0.261699	0.658097
224	C	0.208768	0.24587	0.6548
225	C	0.191135	0.262318	0.668477
226	C	0.209645	0.297246	0.343153
227	C	0.244957	0.31533	0.340211
228	C	0.261615	0.29709	0.332837
229	O	0.192917	0.314633	0.34716
230	H	0.286813	0.310481	0.337611
231	O	0.318768	0.29093	0.638208
232	O	0.189052	0.214401	0.638141
233	H	0.313753	0.289784	0.605981
234	H	0.194094	0.215612	0.605914
235	H	0.318274	0.185513	0.649087
236	H	0.189447	0.3197	0.649583
237	C	0.263008	0.020789	0.658037
238	C	0.298405	0.039308	0.332761
239	C	0.316684	0.074225	0.339977
240	C	0.298655	0.091527	0.342587
241	C	0.263715	0.0751	0.668055
242	C	0.247196	0.040963	0.654656
243	H	0.311736	0.027473	0.337879
244	O	0.316077	0.125654	0.346376
245	C	0.24488	0.484417	0.658087
246	C	0.260695	0.464244	0.654733
247	C	0.24417	0.430101	0.668122
248	C	0.209226	0.413674	0.342654
249	C	0.191201	0.430974	0.33998
250	C	0.209491	0.465899	0.332852
251	O	0.191839	0.379551	0.34649
252	H	0.196146	0.477737	0.337799
253	O	0.215688	0.029176	0.638117
254	O	0.292196	0.476027	0.638174
255	H	0.216827	0.525278	0.605894
256	H	0.291037	0.979877	0.605941
257	H	0.321109	0.134091	0.648742
258	H	0.186713	0.371092	0.648876
259	N	0.144231	0.252453	0.378878
260	C	0.155894	0.246191	0.340315
261	N	0.136074	0.239037	0.636753
262	C	0.256344	0.365178	0.38261
263	N	0.254026	0.393213	0.378707
264	C	0.26033	0.411011	0.340047
265	N	0.267311	0.398293	0.636422
266	C	0.269861	0.370037	0.637829
267	C	0.262196	0.350769	0.677675
268	H	0.247805	0.351747	0.411701
269	H	0.271476	0.360146	0.607844
270	C	0.141496	0.392539	0.382547
271	C	0.136283	0.401138	0.637943
272	C	0.15578	0.412824	0.677588
273	H	0.155024	0.397443	0.411557
274	H	0.146013	0.412631	0.607901
275	C	0.393821	0.255158	0.382895
276	N	0.363457	0.252789	0.378851
277	C	0.351891	0.259064	0.340211
278	N	0.371768	0.266142	0.636723
279	C	0.402603	0.268752	0.638178
280	C	0.414133	0.261015	0.678027
281	H	0.398655	0.246591	0.412006
282	H	0.414143	0.270401	0.608213
283	C	0.251544	0.140152	0.382393
284	N	0.253937	0.112163	0.378496
285	C	0.247599	0.094215	0.33995
286	N	0.240419	0.10688	0.636418
287	C	0.237794	0.135093	0.637769
288	C	0.245574	0.154509	0.677484
289	H	0.260145	0.153624	0.411446
290	H	0.236064	0.144884	0.607764
291	C	0.366186	0.112477	0.382701
292	N	0.394173	0.142895	0.379085
293	C	0.412254	0.15463	0.340667
294	N	0.399876	0.134954	0.636928
295	C	0.371674	0.104089	0.637956
296	C	0.352131	0.092395	0.677521
297	H	0.352556	0.107455	0.411634
298	H	0.361999	0.092665	0.607864
299	C	0.485662	0.243455	0.991446
300	C	0.467174	0.260353	0.666226
301	C	0.432315	0.243748	0.673915
302	C	0.415062	0.208438	0.677005
303	C	0.431418	0.189882	0.002182
304	C	0.465448	0.20746	0.988273
305	H	0.479009	0.285565	0.670897
306	O	0.38096	0.191738	0.681193
307	O	0.126805	0.313382	0.680496
308	O	0.477133	0.187705	0.971543
309	H	0.980895	0.192718	0.939303
310	H	0.526678	0.312364	0.939203
311	H	0.372337	0.188258	0.983659
312	H	0.135353	0.316874	0.982919
313	C	0.263041	0.243601	0.991399
314	C	0.24618	0.208203	0.666085
315	C	0.262827	0.189938	0.673326
316	C	0.298144	0.207992	0.676137
317	C	0.31666	0.24293	0.001579
318	C	0.299037	0.25943	0.988089
319	H	0.220987	0.194827	0.670923
320	O	0.314884	0.190609	0.680027
321	C	0.244763	0.261699	0.991429
322	C	0.208768	0.24587	0.988132
323	C	0.191135	0.262318	0.00181
324	C	0.209645	0.297246	0.676485
325	C	0.244957	0.31533	0.673544
326	C	0.261615	0.29709	0.666169
327	O	0.192917	0.314633	0.680493
328	H	0.286813	0.310481	0.670943
329	O	0.318768	0.29093	0.971543
330	O	0.189052	0.214401	0.971473
331	H	0.313753	0.289784	0.939313
332	H	0.194094	0.215612	0.939246
333	H	0.318274	0.185513	0.982423
334	H	0.189447	0.3197	0.982915
335	C	0.263008	0.020789	0.991372
336	C	0.298405	0.039308	0.666095
337	C	0.316684	0.074225	0.673312
338	C	0.298655	0.091527	0.675919
339	C	0.263715	0.0751	0.001391
340	C	0.247196	0.040963	0.987988
341	H	0.311736	0.027473	0.671212
342	O	0.316077	0.125654	0.679709
343	C	0.24488	0.484417	0.991419
344	C	0.260695	0.464244	0.988065
345	C	0.24417	0.430101	0.001458
346	C	0.209226	0.413674	0.675986
347	C	0.191201	0.430974	0.673312
348	C	0.209491	0.465899	0.666186
349	O	0.191839	0.379551	0.679823
350	H	0.196146	0.477737	0.671131
351	O	0.215688	0.029176	0.97145
352	O	0.292196	0.476027	0.971507
353	H	0.216827	0.525278	0.939226
354	H	0.291037	0.979877	0.939273
355	H	0.321109	0.134091	0.982078
356	H	0.186713	0.371092	0.982208
357	N	0.144231	0.252453	0.71221
358	C	0.155894	0.246191	0.673651
359	N	0.136074	0.239037	0.970086
360	C	0.256344	0.365178	0.715943
361	N	0.254026	0.393213	0.712039
362	C	0.26033	0.411011	0.673383
363	N	0.267311	0.398293	0.969754
364	C	0.269861	0.370037	0.971161
365	C	0.262196	0.350769	0.01101
366	H	0.247805	0.351747	0.745033
367	H	0.271476	0.360146	0.941176
368	C	0.141496	0.392539	0.715882
369	C	0.136283	0.401138	0.971275
370	C	0.15578	0.412824	0.010921
371	H	0.155024	0.397443	0.744889
372	H	0.146013	0.412631	0.941233
373	C	0.393821	0.255158	0.716227
374	N	0.363457	0.252789	0.712183
375	C	0.351891	0.259064	0.673544
376	N	0.371768	0.266142	0.970056
377	C	0.402603	0.268752	0.97151
378	C	0.414133	0.261015	0.011359
379	H	0.398655	0.246591	0.745338
380	H	0.414143	0.270401	0.941545
381	C	0.251544	0.140152	0.715725
382	N	0.253937	0.112163	0.711828
383	C	0.247599	0.094215	0.673282
384	N	0.240419	0.10688	0.969751
385	C	0.237794	0.135093	0.971104
386	C	0.245574	0.154509	0.010819
387	H	0.260145	0.153624	0.744778
388	H	0.236064	0.144884	0.941096
389	C	0.366186	0.112477	0.716033
390	N	0.394173	0.142895	0.712421
391	C	0.412254	0.15463	0.673999
392	N	0.399876	0.134954	0.970263
393	C	0.371674	0.104089	0.971292
394	C	0.352131	0.092395	0.010853
395	H	0.352556	0.107455	0.744969
396	H	0.361999	0.092665	0.9412
397	C	0.485663	0.743455	0.324779
398	C	0.467175	0.760354	0.999558
399	C	0.432314	0.743746	0.00725
400	C	0.415062	0.708438	0.010338
401	C	0.431417	0.689882	0.335517
402	C	0.465449	0.70746	0.321606
403	H	0.479009	0.785563	0.00423
404	O	0.38096	0.691737	0.014528
405	O	0.126805	0.813383	0.01383
406	O	0.477133	0.687703	0.304876
407	H	0.980896	0.692718	0.272636
408	H	0.526678	0.812363	0.272536
409	H	0.372337	0.688257	0.316994
410	H	0.135354	0.816876	0.316253
411	C	0.263041	0.743601	0.324732
412	C	0.24618	0.708202	0.999421
413	C	0.262827	0.689937	0.00666
414	C	0.298144	0.707991	0.009472
415	C	0.316659	0.742929	0.334913
416	C	0.299036	0.759429	0.321424
417	H	0.220987	0.694826	0.004258
418	O	0.314885	0.690609	0.01336
419	C	0.244763	0.7617	0.324762
420	C	0.208768	0.74587	0.321467
421	C	0.191136	0.762319	0.335142
422	C	0.209644	0.797244	0.009819
423	C	0.244956	0.815329	0.006877
424	C	0.261614	0.797089	0.999505
425	O	0.192917	0.814632	0.013828
426	H	0.286813	0.810482	0.004277
427	O	0.318768	0.790931	0.304876
428	O	0.189051	0.7144	0.304806
429	H	0.313752	0.789783	0.272646
430	H	0.194093	0.715611	0.272579
431	H	0.318274	0.685512	0.315756
432	H	0.189448	0.819701	0.316248
433	C	0.263007	0.520788	0.324705
434	C	0.298404	0.539306	0.999427
435	C	0.316684	0.574226	0.006645
436	C	0.298655	0.591528	0.009253
437	C	0.263716	0.575101	0.334723
438	C	0.247196	0.540963	0.321324
439	H	0.311735	0.527472	0.004546
440	O	0.316075	0.625653	0.013042
441	C	0.244881	0.984418	0.324753
442	C	0.260694	0.964242	0.321399
443	C	0.24417	0.9301	0.33479
444	C	0.209227	0.913675	0.009319
445	C	0.191203	0.930975	0.006647
446	C	0.209491	0.965897	0.999518
447	O	0.19184	0.879552	0.013158
448	H	0.196145	0.977736	0.004466
449	O	0.215688	0.529175	0.304782
450	O	0.292196	0.976026	0.30484
451	H	0.216827	0.02528	0.272561
452	H	0.291038	0.479879	0.272607
453	H	0.321109	0.63409	0.31541
454	H	0.186712	0.871091	0.315543
455	N	0.144232	0.752454	0.045543
456	C	0.155894	0.746191	0.006983
457	N	0.136074	0.739038	0.303421
458	C	0.256345	0.865179	0.049276
459	N	0.254027	0.893214	0.045373
460	C	0.260329	0.91101	0.006715
461	N	0.26731	0.898291	0.303088
462	C	0.26986	0.870035	0.304495
463	C	0.262196	0.850768	0.344343
464	H	0.247805	0.851745	0.078367
465	H	0.271476	0.860144	0.274512
466	C	0.141495	0.892537	0.049214
467	C	0.136282	0.901137	0.304609
468	C	0.15578	0.912823	0.344255
469	H	0.155023	0.897441	0.078223
470	H	0.146013	0.91263	0.274568
471	C	0.393821	0.755156	0.049562
472	N	0.363456	0.752787	0.045517
473	C	0.35189	0.759063	0.006877
474	N	0.371768	0.76614	0.30339
475	C	0.402601	0.76875	0.304845
476	C	0.414134	0.761016	0.344691
477	H	0.398655	0.746589	0.078673
478	H	0.414143	0.7704	0.27488
479	C	0.251544	0.640152	0.049059
480	N	0.253936	0.612162	0.045162
481	C	0.247599	0.594216	0.006617
482	N	0.240419	0.60688	0.303086
483	C	0.237794	0.635093	0.304436
484	C	0.245573	0.654508	0.344152
485	H	0.260144	0.653623	0.078112
486	H	0.236064	0.644883	0.27443
487	C	0.366186	0.612476	0.049366
488	N	0.394173	0.642895	0.045753
489	C	0.412254	0.654629	0.007332
490	N	0.399875	0.634952	0.303596
491	C	0.371674	0.604089	0.304624
492	C	0.352131	0.592396	0.344185
493	H	0.352556	0.607454	0.078302
494	H	0.361999	0.592664	0.274532
495	C	0.485663	0.743455	0.658114
496	C	0.467175	0.760354	0.332893
497	C	0.432314	0.743746	0.340583
498	C	0.415062	0.708438	0.343672
499	C	0.431417	0.689882	0.668849
500	C	0.465449	0.70746	0.654937
501	H	0.479009	0.785563	0.337564
502	O	0.38096	0.691737	0.347861
503	O	0.126805	0.813383	0.347164
504	O	0.477133	0.687703	0.638208
505	H	0.980896	0.692718	0.605971
506	H	0.526678	0.812363	0.605867
507	H	0.372337	0.688257	0.650327
508	H	0.135354	0.816876	0.649586
509	C	0.263041	0.743601	0.658064
510	C	0.24618	0.708202	0.332753
511	C	0.262827	0.689937	0.339993
512	C	0.298144	0.707991	0.342805
513	C	0.316659	0.742929	0.668246
514	C	0.299036	0.759429	0.654757
515	H	0.220987	0.694826	0.337591
516	O	0.314885	0.690609	0.346695
517	C	0.244763	0.7617	0.658097
518	C	0.208768	0.74587	0.6548
519	C	0.191136	0.762319	0.668477
520	C	0.209644	0.797244	0.343153
521	C	0.244956	0.815329	0.340211
522	C	0.261614	0.797089	0.332837
523	O	0.192917	0.814632	0.34716
524	H	0.286813	0.810482	0.337611
525	O	0.318768	0.790931	0.638208
526	O	0.189051	0.7144	0.638141
527	H	0.313752	0.789783	0.605981
528	H	0.194093	0.715611	0.605914
529	H	0.318274	0.685512	0.649087
530	H	0.189448	0.819701	0.649583
531	C	0.263007	0.520788	0.658037
532	C	0.298404	0.539306	0.332761
533	C	0.316684	0.574226	0.339977
534	C	0.298655	0.591528	0.342587
535	C	0.263716	0.575101	0.668055
536	C	0.247196	0.540963	0.654656
537	H	0.311735	0.527472	0.337879
538	O	0.316075	0.625653	0.346376
539	C	0.244881	0.984418	0.658087
540	C	0.260694	0.964242	0.654733
541	C	0.24417	0.9301	0.668122
542	C	0.209227	0.913675	0.342654
543	C	0.191203	0.930975	0.33998
544	C	0.209491	0.965897	0.332852
545	O	0.19184	0.879552	0.34649
546	H	0.196145	0.977736	0.337799
547	O	0.215688	0.529175	0.638117
548	O	0.292196	0.976026	0.638174
549	H	0.216827	0.02528	0.605894
550	H	0.291038	0.479879	0.605941
551	H	0.321109	0.63409	0.648742
552	H	0.186712	0.871091	0.648876
553	N	0.144232	0.752454	0.378878
554	C	0.155894	0.746191	0.340315
555	N	0.136074	0.739038	0.636753
556	C	0.256345	0.865179	0.38261
557	N	0.254027	0.893214	0.378707
558	C	0.260329	0.91101	0.340047
559	N	0.26731	0.898291	0.636422
560	C	0.26986	0.870035	0.637829
561	C	0.262196	0.850768	0.677675
562	H	0.247805	0.851745	0.411701
563	H	0.271476	0.860144	0.607844
564	C	0.141495	0.892537	0.382547
565	C	0.136282	0.901137	0.637943
566	C	0.15578	0.912823	0.677588
567	H	0.155023	0.897441	0.411557
568	H	0.146013	0.91263	0.607901
569	C	0.393821	0.755156	0.382895
570	N	0.363456	0.752787	0.378851
571	C	0.35189	0.759063	0.340211
572	N	0.371768	0.76614	0.636723
573	C	0.402601	0.76875	0.638178
574	C	0.414134	0.761016	0.678027
575	H	0.398655	0.746589	0.412006
576	H	0.414143	0.7704	0.608213
577	C	0.251544	0.640152	0.382393
578	N	0.253936	0.612162	0.378496
579	C	0.247599	0.594216	0.33995
580	N	0.240419	0.60688	0.636418
581	C	0.237794	0.635093	0.637769
582	C	0.245573	0.654508	0.677484
583	H	0.260144	0.653623	0.411446
584	H	0.236064	0.644883	0.607764
585	C	0.366186	0.612476	0.382701
586	N	0.394173	0.642895	0.379085
587	C	0.412254	0.654629	0.340667
588	N	0.399875	0.634952	0.636928
589	C	0.371674	0.604089	0.637956
590	C	0.352131	0.592396	0.677521
591	H	0.352556	0.607454	0.411634
592	H	0.361999	0.592664	0.607864
593	C	0.485663	0.743455	0.991446
594	C	0.467175	0.760354	0.666226
595	C	0.432314	0.743746	0.673915
596	C	0.415062	0.708438	0.677005
597	C	0.431417	0.689882	0.002182
598	C	0.465449	0.70746	0.988273
599	H	0.479009	0.785563	0.670897
600	O	0.38096	0.691737	0.681193
601	O	0.126805	0.813383	0.680496
602	O	0.477133	0.687703	0.971543
603	H	0.980896	0.692718	0.939303
604	H	0.526678	0.812363	0.939203
605	H	0.372337	0.688257	0.983659
606	H	0.135354	0.816876	0.982919
607	C	0.263041	0.743601	0.991399
608	C	0.24618	0.708202	0.666085
609	C	0.262827	0.689937	0.673326
610	C	0.298144	0.707991	0.676137
611	C	0.316659	0.742929	0.001579
612	C	0.299036	0.759429	0.988089
613	H	0.220987	0.694826	0.670923
614	O	0.314885	0.690609	0.680027
615	C	0.244763	0.7617	0.991429
616	C	0.208768	0.74587	0.988132
617	C	0.191136	0.762319	0.00181
618	C	0.209644	0.797244	0.676485
619	C	0.244956	0.815329	0.673544
620	C	0.261614	0.797089	0.666169
621	O	0.192917	0.814632	0.680493
622	H	0.286813	0.810482	0.670943
623	O	0.318768	0.790931	0.971543
624	O	0.189051	0.7144	0.971473
625	H	0.313752	0.789783	0.939313
626	H	0.194093	0.715611	0.939246
627	H	0.318274	0.685512	0.982423
628	H	0.189448	0.819701	0.982915
629	C	0.263007	0.520788	0.991372
630	C	0.298404	0.539306	0.666095
631	C	0.316684	0.574226	0.673312
632	C	0.298655	0.591528	0.675919
633	C	0.263716	0.575101	0.001391
634	C	0.247196	0.540963	0.987988
635	H	0.311735	0.527472	0.671212
636	O	0.316075	0.625653	0.679709
637	C	0.244881	0.984418	0.991419
638	C	0.260694	0.964242	0.988065
639	C	0.24417	0.9301	0.001458
640	C	0.209227	0.913675	0.675986
641	C	0.191203	0.930975	0.673312
642	C	0.209491	0.965897	0.666186
643	O	0.19184	0.879552	0.679823
644	H	0.196145	0.977736	0.671131
645	O	0.215688	0.529175	0.97145
646	O	0.292196	0.976026	0.971507
647	H	0.216827	0.02528	0.939226
648	H	0.291038	0.479879	0.939273
649	H	0.321109	0.63409	0.982078
650	H	0.186712	0.871091	0.982208
651	N	0.144232	0.752454	0.71221
652	C	0.155894	0.746191	0.673651
653	N	0.136074	0.739038	0.970086
654	C	0.256345	0.865179	0.715943
655	N	0.254027	0.893214	0.712039
656	C	0.260329	0.91101	0.673383
657	N	0.26731	0.898291	0.969754
658	C	0.26986	0.870035	0.971161
659	C	0.262196	0.850768	0.01101
660	H	0.247805	0.851745	0.745033
661	H	0.271476	0.860144	0.941176
662	C	0.141495	0.892537	0.715882
663	C	0.136282	0.901137	0.971275
664	C	0.15578	0.912823	0.010921
665	H	0.155023	0.897441	0.744889
666	H	0.146013	0.91263	0.941233
667	C	0.393821	0.755156	0.716227
668	N	0.363456	0.752787	0.712183
669	C	0.35189	0.759063	0.673544
670	N	0.371768	0.76614	0.970056
671	C	0.402601	0.76875	0.97151
672	C	0.414134	0.761016	0.011359
673	H	0.398655	0.746589	0.745338
674	H	0.414143	0.7704	0.941545
675	C	0.251544	0.640152	0.715725
676	N	0.253936	0.612162	0.711828
677	C	0.247599	0.594216	0.673282
678	N	0.240419	0.60688	0.969751
679	C	0.237794	0.635093	0.971104
680	C	0.245573	0.654508	0.010819
681	H	0.260144	0.653623	0.744778
682	H	0.236064	0.644883	0.941096
683	C	0.366186	0.612476	0.716033
684	N	0.394173	0.642895	0.712421
685	C	0.412254	0.654629	0.673999
686	N	0.399875	0.634952	0.970263
687	C	0.371674	0.604089	0.971292
688	C	0.352131	0.592396	0.010853
689	H	0.352556	0.607454	0.744969
690	H	0.361999	0.592664	0.9412
691	C	0.985662	0.243455	0.324779
692	C	0.967174	0.260353	0.999558
693	C	0.932315	0.243748	0.00725
694	C	0.915062	0.208438	0.010338
695	C	0.931418	0.189882	0.335517
696	C	0.965448	0.20746	0.321606
697	H	0.979009	0.285565	0.00423
698	O	0.88096	0.191738	0.014528
699	C	0.522038	0.261669	0.324678
700	C	0.542246	0.297659	0.32141
701	C	0.576322	0.315247	0.335108
702	C	0.592689	0.296694	0.009811
703	C	0.575418	0.261381	0.006886
704	C	0.540531	0.244764	0.999397
705	O	0.626803	0.313382	0.01383
706	H	0.528685	0.219578	0.004329
707	O	0.977133	0.187705	0.304876
708	O	0.530529	0.317408	0.304759
709	H	0.480895	0.192718	0.272636
710	H	0.872337	0.188258	0.316994
711	H	0.635352	0.316874	0.316253
712	C	0.76304	0.243601	0.324732
713	C	0.746179	0.208203	0.999421
714	C	0.762826	0.189938	0.00666
715	C	0.798145	0.207992	0.009472
716	C	0.816659	0.24293	0.334913
717	C	0.799036	0.25943	0.321424
718	H	0.720987	0.194827	0.004258
719	O	0.814884	0.190609	0.01336
720	C	0.744764	0.261699	0.324762
721	C	0.708768	0.24587	0.321467
722	C	0.691134	0.262318	0.335142
723	C	0.709645	0.297246	0.009819
724	C	0.744957	0.31533	0.006877
725	C	0.761615	0.29709	0.999505
726	O	0.692917	0.314633	0.013828
727	H	0.786811	0.310481	0.004277
728	O	0.818768	0.29093	0.304876
729	O	0.689051	0.214401	0.304806
730	H	0.813753	0.289784	0.272646
731	H	0.694093	0.215612	0.272579
732	H	0.818274	0.185513	0.315756
733	H	0.689447	0.3197	0.316248
734	C	0.763008	0.020789	0.324705
735	C	0.798405	0.039308	0.999427
736	C	0.816682	0.074225	0.006645
737	C	0.798655	0.091527	0.009253
738	C	0.763715	0.0751	0.334723
739	C	0.747196	0.040963	0.321324
740	H	0.811736	0.027473	0.004546
741	O	0.816074	0.125654	0.013042
742	C	0.744879	0.484417	0.324753
743	C	0.760694	0.464244	0.321399
744	C	0.74417	0.430101	0.33479
745	C	0.709225	0.413674	0.009319
746	C	0.691201	0.430974	0.006647
747	C	0.709491	0.465899	0.999518
748	O	0.691838	0.379551	0.013158
749	H	0.696144	0.477737	0.004466
750	O	0.715687	0.029176	0.304782
751	O	0.792196	0.476027	0.30484
752	H	0.716827	0.525278	0.272561
753	H	0.791036	0.979877	0.272607
754	H	0.821109	0.134091	0.31541
755	H	0.686712	0.371092	0.315543
756	C	0.613828	0.250021	0.049442
757	N	0.644231	0.252453	0.045543
758	C	0.655895	0.246191	0.006983
759	N	0.636075	0.239037	0.303421
760	C	0.605219	0.236384	0.304728
761	C	0.593581	0.244106	0.34449
762	H	0.608924	0.258595	0.078493
763	H	0.593722	0.234691	0.274711
764	C	0.756343	0.365178	0.049276
765	N	0.754026	0.393213	0.045373
766	C	0.760331	0.411011	0.006715
767	N	0.767311	0.398293	0.303088
768	C	0.769861	0.370037	0.304495
769	C	0.762197	0.350769	0.344343
770	H	0.747806	0.351747	0.078367
771	H	0.771475	0.360146	0.274512
772	C	0.641497	0.392539	0.049214
773	N	0.613501	0.362152	0.04542
774	C	0.595482	0.350488	0.006935
775	N	0.608061	0.3703	0.30336
776	C	0.636282	0.401138	0.304609
777	C	0.65578	0.412824	0.344255
778	H	0.655024	0.397443	0.078223
779	H	0.646013	0.412631	0.274568
780	C	0.893821	0.255158	0.049562
781	N	0.863457	0.252789	0.045517
782	C	0.851891	0.259064	0.006877
783	N	0.871768	0.266142	0.30339
784	C	0.902603	0.268752	0.304845
785	C	0.914133	0.261015	0.344691
786	H	0.898655	0.246591	0.078673
787	H	0.914143	0.270401	0.27488
788	C	0.751543	0.140152	0.049059
789	N	0.753937	0.112163	0.045162
790	C	0.747599	0.094215	0.006617
791	N	0.74042	0.10688	0.303086
792	C	0.737794	0.135093	0.304436
793	C	0.745574	0.154509	0.344152
794	H	0.760144	0.153624	0.078112
795	H	0.736063	0.144884	0.27443
796	C	0.866186	0.112477	0.049366
797	N	0.894173	0.142895	0.045753
798	C	0.912254	0.15463	0.007333
799	N	0.899876	0.134954	0.303596
800	C	0.871674	0.104089	0.304624
801	C	0.852131	0.092395	0.344185
802	H	0.852556	0.107455	0.078302
803	H	0.861999	0.092665	0.274532
804	C	0.985662	0.243455	0.658114
805	C	0.967174	0.260353	0.332893
806	C	0.932315	0.243748	0.340583
807	C	0.915062	0.208438	0.343672
808	C	0.931418	0.189882	0.668849
809	C	0.965448	0.20746	0.654937
810	H	0.979009	0.285565	0.337564
811	O	0.88096	0.191738	0.347861
812	C	0.522038	0.261669	0.65801
813	C	0.542246	0.297659	0.654743
814	C	0.576322	0.315247	0.668441
815	C	0.592689	0.296694	0.343143
816	C	0.575418	0.261381	0.340218
817	C	0.540531	0.244764	0.33273
818	O	0.626803	0.313382	0.347164
819	H	0.528685	0.219578	0.337661
820	O	0.977133	0.187705	0.638208
821	O	0.530529	0.317408	0.638094
822	H	0.480895	0.192718	0.605971
823	H	0.872337	0.188258	0.650327
824	H	0.635352	0.316874	0.649586
825	C	0.76304	0.243601	0.658064
826	C	0.746179	0.208203	0.332753
827	C	0.762826	0.189938	0.339993
828	C	0.798145	0.207992	0.342805
829	C	0.816659	0.24293	0.668246
830	C	0.799036	0.25943	0.654757
831	H	0.720987	0.194827	0.337591
832	O	0.814884	0.190609	0.346695
833	C	0.744764	0.261699	0.658097
834	C	0.708768	0.24587	0.6548
835	C	0.691134	0.262318	0.668477
836	C	0.709645	0.297246	0.343153
837	C	0.744957	0.31533	0.340211
838	C	0.761615	0.29709	0.332837
839	O	0.692917	0.314633	0.34716
840	H	0.786811	0.310481	0.337611
841	O	0.818768	0.29093	0.638208
842	O	0.689051	0.214401	0.638141
843	H	0.813753	0.289784	0.605981
844	H	0.694093	0.215612	0.605914
845	H	0.818274	0.185513	0.649087
846	H	0.689447	0.3197	0.649583
847	C	0.763008	0.020789	0.658037
848	C	0.798405	0.039308	0.332761
849	C	0.816682	0.074225	0.339977
850	C	0.798655	0.091527	0.342587
851	C	0.763715	0.0751	0.668055
852	C	0.747196	0.040963	0.654656
853	H	0.811736	0.027473	0.337879
854	O	0.816074	0.125654	0.346376
855	C	0.744879	0.484417	0.658087
856	C	0.760694	0.464244	0.654733
857	C	0.74417	0.430101	0.668122
858	C	0.709225	0.413674	0.342654
859	C	0.691201	0.430974	0.33998
860	C	0.709491	0.465899	0.332852
861	O	0.691838	0.379551	0.34649
862	H	0.696144	0.477737	0.337799
863	O	0.715687	0.029176	0.638117
864	O	0.792196	0.476027	0.638174
865	H	0.716827	0.525278	0.605894
866	H	0.791036	0.979877	0.605941
867	H	0.821109	0.134091	0.648742
868	H	0.686712	0.371092	0.648876
869	C	0.613828	0.250021	0.382774
870	N	0.644231	0.252453	0.378878
871	C	0.655895	0.246191	0.340315
872	N	0.636075	0.239037	0.636753
873	C	0.605219	0.236384	0.63806
874	C	0.593581	0.244106	0.677822
875	H	0.608924	0.258595	0.411825
876	H	0.593722	0.234691	0.608045
877	C	0.756343	0.365178	0.38261
878	N	0.754026	0.393213	0.378707
879	C	0.760331	0.411011	0.340047
880	N	0.767311	0.398293	0.636422
881	C	0.769861	0.370037	0.637829
882	C	0.762197	0.350769	0.677675
883	H	0.747806	0.351747	0.411701
884	H	0.771475	0.360146	0.607844
885	C	0.641497	0.392539	0.382547
886	N	0.613501	0.362152	0.378754
887	C	0.595482	0.350488	0.340268
888	N	0.608061	0.3703	0.636693
889	C	0.636282	0.401138	0.637943
890	C	0.65578	0.412824	0.677588
891	H	0.655024	0.397443	0.411557
892	H	0.646013	0.412631	0.607901
893	C	0.893821	0.255158	0.382895
894	N	0.863457	0.252789	0.378851
895	C	0.851891	0.259064	0.340211
896	N	0.871768	0.266142	0.636723
897	C	0.902603	0.268752	0.638178
898	C	0.914133	0.261015	0.678027
899	H	0.898655	0.246591	0.412006
900	H	0.914143	0.270401	0.608213
901	C	0.751543	0.140152	0.382393
902	N	0.753937	0.112163	0.378496
903	C	0.747599	0.094215	0.33995
904	N	0.74042	0.10688	0.636418
905	C	0.737794	0.135093	0.637769
906	C	0.745574	0.154509	0.677484
907	H	0.760144	0.153624	0.411446
908	H	0.736063	0.144884	0.607764
909	C	0.866186	0.112477	0.382701
910	N	0.894173	0.142895	0.379085
911	C	0.912254	0.15463	0.340667
912	N	0.899876	0.134954	0.636928
913	C	0.871674	0.104089	0.637956
914	C	0.852131	0.092395	0.677521
915	H	0.852556	0.107455	0.411634
916	H	0.861999	0.092665	0.607864
917	C	0.985662	0.243455	0.991446
918	C	0.967174	0.260353	0.666226
919	C	0.932315	0.243748	0.673915
920	C	0.915062	0.208438	0.677005
921	C	0.931418	0.189882	0.002182
922	C	0.965448	0.20746	0.988273
923	H	0.979009	0.285565	0.670897
924	O	0.88096	0.191738	0.681193
925	C	0.522038	0.261669	0.991346
926	C	0.542246	0.297659	0.988075
927	C	0.576322	0.315247	0.001773
928	C	0.592689	0.296694	0.676475
929	C	0.575418	0.261381	0.673554
930	C	0.540531	0.244764	0.666062
931	O	0.626803	0.313382	0.680496
932	H	0.528685	0.219578	0.670994
933	O	0.977133	0.187705	0.971543
934	O	0.530529	0.317408	0.971426
935	H	0.480895	0.192718	0.939303
936	H	0.872337	0.188258	0.983659
937	H	0.635352	0.316874	0.982919
938	C	0.76304	0.243601	0.991399
939	C	0.746179	0.208203	0.666085
940	C	0.762826	0.189938	0.673326
941	C	0.798145	0.207992	0.676137
942	C	0.816659	0.24293	0.001579
943	C	0.799036	0.25943	0.988089
944	H	0.720987	0.194827	0.670923
945	O	0.814884	0.190609	0.680027
946	C	0.744764	0.261699	0.991429
947	C	0.708768	0.24587	0.988132
948	C	0.691134	0.262318	0.00181
949	C	0.709645	0.297246	0.676485
950	C	0.744957	0.31533	0.673544
951	C	0.761615	0.29709	0.666169
952	O	0.692917	0.314633	0.680493
953	H	0.786811	0.310481	0.670943
954	O	0.818768	0.29093	0.971543
955	O	0.689051	0.214401	0.971473
956	H	0.813753	0.289784	0.939313
957	H	0.694093	0.215612	0.939246
958	H	0.818274	0.185513	0.982423
959	H	0.689447	0.3197	0.982915
960	C	0.763008	0.020789	0.991372
961	C	0.798405	0.039308	0.666095
962	C	0.816682	0.074225	0.673312
963	C	0.798655	0.091527	0.675919
964	C	0.763715	0.0751	0.001391
965	C	0.747196	0.040963	0.987988
966	H	0.811736	0.027473	0.671212
967	O	0.816074	0.125654	0.679709
968	C	0.744879	0.484417	0.991419
969	C	0.760694	0.464244	0.988065
970	C	0.74417	0.430101	0.001458
971	C	0.709225	0.413674	0.675986
972	C	0.691201	0.430974	0.673312
973	C	0.709491	0.465899	0.666186
974	O	0.691838	0.379551	0.679823
975	H	0.696144	0.477737	0.671131
976	O	0.715687	0.029176	0.97145
977	O	0.792196	0.476027	0.971507
978	H	0.716827	0.525278	0.939226
979	H	0.791036	0.979877	0.939273
980	H	0.821109	0.134091	0.982078
981	H	0.686712	0.371092	0.982208
982	C	0.613828	0.250021	0.71611
983	N	0.644231	0.252453	0.71221
984	C	0.655895	0.246191	0.673651
985	N	0.636075	0.239037	0.970086
986	C	0.605219	0.236384	0.971396
987	C	0.593581	0.244106	0.011155
988	H	0.608924	0.258595	0.74516
989	H	0.593722	0.234691	0.941377
990	C	0.756343	0.365178	0.715943
991	N	0.754026	0.393213	0.712039
992	C	0.760331	0.411011	0.673383
993	N	0.767311	0.398293	0.969754
994	C	0.769861	0.370037	0.971161
995	C	0.762197	0.350769	0.01101
996	H	0.747806	0.351747	0.745033
997	H	0.771475	0.360146	0.941176
998	C	0.641497	0.392539	0.715882
999	N	0.613501	0.362152	0.712086
1000	C	0.595482	0.350488	0.673601
1001	N	0.608061	0.3703	0.970026
1002	C	0.636282	0.401138	0.971275
1003	C	0.65578	0.412824	0.010921
1004	H	0.655024	0.397443	0.744889
1005	H	0.646013	0.412631	0.941233
1006	C	0.893821	0.255158	0.716227
1007	N	0.863457	0.252789	0.712183
1008	C	0.851891	0.259064	0.673544
1009	N	0.871768	0.266142	0.970056
1010	C	0.902603	0.268752	0.97151
1011	C	0.914133	0.261015	0.011359
1012	H	0.898655	0.246591	0.745338
1013	H	0.914143	0.270401	0.941545
1014	C	0.751543	0.140152	0.715725
1015	N	0.753937	0.112163	0.711828
1016	C	0.747599	0.094215	0.673282
1017	N	0.74042	0.10688	0.969751
1018	C	0.737794	0.135093	0.971104
1019	C	0.745574	0.154509	0.010819
1020	H	0.760144	0.153624	0.744778
1021	H	0.736063	0.144884	0.941096
1022	C	0.866186	0.112477	0.716033
1023	N	0.894173	0.142895	0.712421
1024	C	0.912254	0.15463	0.673999
1025	N	0.899876	0.134954	0.970263
1026	C	0.871674	0.104089	0.971292
1027	C	0.852131	0.092395	0.010853
1028	H	0.852556	0.107455	0.744969
1029	H	0.861999	0.092665	0.9412
1030	C	0.985663	0.743455	0.324779
1031	C	0.967174	0.760354	0.999558
1032	C	0.932313	0.743746	0.00725
1033	C	0.91506	0.708438	0.010338
1034	C	0.931417	0.689882	0.335517
1035	C	0.965449	0.70746	0.321606
1036	H	0.979008	0.785563	0.00423
1037	O	0.880961	0.691737	0.014528
1038	C	0.522037	0.761668	0.324678
1039	C	0.542246	0.797661	0.32141
1040	C	0.576321	0.815246	0.335108
1041	C	0.592689	0.796695	0.009811
1042	C	0.575419	0.761379	0.006886
1043	C	0.540532	0.744764	0.999397
1044	O	0.626805	0.813383	0.01383
1045	H	0.528686	0.719577	0.004329
1046	O	0.977133	0.687703	0.304876
1047	O	0.53053	0.81741	0.304759
1048	H	0.480896	0.692718	0.272636
1049	H	0.872336	0.688257	0.316994
1050	H	0.635354	0.816876	0.316253
1051	C	0.763041	0.743601	0.324732
1052	C	0.74618	0.708202	0.999421
1053	C	0.762827	0.689937	0.00666
1054	C	0.798144	0.707991	0.009472
1055	C	0.816659	0.742929	0.334913
1056	C	0.799036	0.759429	0.321424
1057	H	0.720986	0.694826	0.004258
1058	O	0.814885	0.690609	0.01336
1059	C	0.744763	0.7617	0.324762
1060	C	0.708767	0.74587	0.321467
1061	C	0.691136	0.762319	0.335142
1062	C	0.709643	0.797244	0.009819
1063	C	0.744955	0.815329	0.006877
1064	C	0.761613	0.797089	0.999505
1065	O	0.692917	0.814632	0.013828
1066	H	0.786813	0.810482	0.004277
1067	O	0.818767	0.790931	0.304876
1068	O	0.689052	0.7144	0.304806
1069	H	0.813751	0.789783	0.272646
1070	H	0.694093	0.715611	0.272579
1071	H	0.818273	0.685512	0.315756
1072	H	0.689446	0.819701	0.316248
1073	C	0.763006	0.520788	0.324705
1074	C	0.798403	0.539306	0.999427
1075	C	0.816684	0.574226	0.006645
1076	C	0.798654	0.591528	0.009253
1077	C	0.763716	0.575101	0.334723
1078	C	0.747195	0.540963	0.321324
1079	H	0.811734	0.527472	0.004546
1080	O	0.816075	0.625653	0.013042
1081	C	0.744881	0.984418	0.324753
1082	C	0.760694	0.964242	0.321399
1083	C	0.74417	0.9301	0.33479
1084	C	0.709227	0.913675	0.009319
1085	C	0.6912	0.930975	0.006647
1086	C	0.709491	0.965897	0.999518
1087	O	0.691838	0.879552	0.013158
1088	H	0.696145	0.977736	0.004466
1089	O	0.715688	0.529175	0.304782
1090	O	0.792196	0.976026	0.30484
1091	H	0.716827	0.02528	0.272561
1092	H	0.791038	0.479879	0.272607
1093	H	0.82111	0.63409	0.31541
1094	H	0.686712	0.871091	0.315543
1095	C	0.613829	0.750019	0.049442
1096	N	0.64423	0.752454	0.045543
1097	C	0.655894	0.746191	0.006983
1098	N	0.636074	0.739038	0.303421
1099	C	0.605219	0.736383	0.304728
1100	C	0.593579	0.744105	0.34449
1101	H	0.608926	0.758596	0.078493
1102	H	0.593723	0.73469	0.274711
1103	C	0.756345	0.865179	0.049276
1104	N	0.754025	0.893214	0.045373
1105	C	0.760329	0.91101	0.006715
1106	N	0.76731	0.898291	0.303088
1107	C	0.769859	0.870035	0.304495
1108	C	0.762195	0.850768	0.344343
1109	H	0.747804	0.851745	0.078367
1110	H	0.771475	0.860144	0.274512
1111	C	0.641495	0.892537	0.049214
1112	N	0.6135	0.86215	0.04542
1113	C	0.595482	0.850487	0.006935
1114	N	0.608061	0.870301	0.30336
1115	C	0.636282	0.901137	0.304609
1116	C	0.65578	0.912823	0.344255
1117	H	0.655023	0.897441	0.078223
1118	H	0.646012	0.91263	0.274568
1119	C	0.893822	0.755156	0.049562
1120	N	0.863455	0.752787	0.045517
1121	C	0.851891	0.759063	0.006877
1122	N	0.871769	0.76614	0.30339
1123	C	0.902601	0.76875	0.304845
1124	C	0.914134	0.761016	0.344691
1125	H	0.898655	0.746589	0.078673
1126	H	0.914143	0.7704	0.27488
1127	C	0.751544	0.640152	0.049059
1128	N	0.753936	0.612162	0.045162
1129	C	0.747598	0.594216	0.006617
1130	N	0.740418	0.60688	0.303086
1131	C	0.737793	0.635093	0.304436
1132	C	0.745573	0.654508	0.344152
1133	H	0.760145	0.653623	0.078112
1134	H	0.736064	0.644883	0.27443
1135	C	0.866185	0.612476	0.049366
1136	N	0.894172	0.642895	0.045753
1137	C	0.912253	0.654629	0.007332
1138	N	0.899874	0.634952	0.303596
1139	C	0.871673	0.604089	0.304624
1140	C	0.85213	0.592396	0.344185
1141	H	0.852555	0.607454	0.078302
1142	H	0.861998	0.592664	0.274532
1143	C	0.985663	0.743455	0.658114
1144	C	0.967174	0.760354	0.332893
1145	C	0.932313	0.743746	0.340583
1146	C	0.91506	0.708438	0.343672
1147	C	0.931417	0.689882	0.668849
1148	C	0.965449	0.70746	0.654937
1149	H	0.979008	0.785563	0.337564
1150	O	0.880961	0.691737	0.347861
1151	C	0.522037	0.761668	0.65801
1152	C	0.542246	0.797661	0.654743
1153	C	0.576321	0.815246	0.668441
1154	C	0.592689	0.796695	0.343143
1155	C	0.575419	0.761379	0.340218
1156	C	0.540532	0.744764	0.33273
1157	O	0.626805	0.813383	0.347164
1158	H	0.528686	0.719577	0.337661
1159	O	0.977133	0.687703	0.638208
1160	O	0.53053	0.81741	0.638094
1161	H	0.480896	0.692718	0.605971
1162	H	0.872336	0.688257	0.650327
1163	H	0.635354	0.816876	0.649586
1164	C	0.763041	0.743601	0.658064
1165	C	0.74618	0.708202	0.332753
1166	C	0.762827	0.689937	0.339993
1167	C	0.798144	0.707991	0.342805
1168	C	0.816659	0.742929	0.668246
1169	C	0.799036	0.759429	0.654757
1170	H	0.720986	0.694826	0.337591
1171	O	0.814885	0.690609	0.346695
1172	C	0.744763	0.7617	0.658097
1173	C	0.708767	0.74587	0.6548
1174	C	0.691136	0.762319	0.668477
1175	C	0.709643	0.797244	0.343153
1176	C	0.744955	0.815329	0.340211
1177	C	0.761613	0.797089	0.332837
1178	O	0.692917	0.814632	0.34716
1179	H	0.786813	0.810482	0.337611
1180	O	0.818767	0.790931	0.638208
1181	O	0.689052	0.7144	0.638141
1182	H	0.813751	0.789783	0.605981
1183	H	0.694093	0.715611	0.605914
1184	H	0.818273	0.685512	0.649087
1185	H	0.689446	0.819701	0.649583
1186	C	0.763006	0.520788	0.658037
1187	C	0.798403	0.539306	0.332761
1188	C	0.816684	0.574226	0.339977
1189	C	0.798654	0.591528	0.342587
1190	C	0.763716	0.575101	0.668055
1191	C	0.747195	0.540963	0.654656
1192	H	0.811734	0.527472	0.337879
1193	O	0.816075	0.625653	0.346376
1194	C	0.744881	0.984418	0.658087
1195	C	0.760694	0.964242	0.654733
1196	C	0.74417	0.9301	0.668122
1197	C	0.709227	0.913675	0.342654
1198	C	0.6912	0.930975	0.33998
1199	C	0.709491	0.965897	0.332852
1200	O	0.691838	0.879552	0.34649
1201	H	0.696145	0.977736	0.337799
1202	O	0.715688	0.529175	0.638117
1203	O	0.792196	0.976026	0.638174
1204	H	0.716827	0.02528	0.605894
1205	H	0.791038	0.479879	0.605941
1206	H	0.82111	0.63409	0.648742
1207	H	0.686712	0.871091	0.648876
1208	C	0.613829	0.750019	0.382774
1209	N	0.64423	0.752454	0.378878
1210	C	0.655894	0.746191	0.340315
1211	N	0.636074	0.739038	0.636753
1212	C	0.605219	0.736383	0.63806
1213	C	0.593579	0.744105	0.677822
1214	H	0.608926	0.758596	0.411825
1215	H	0.593723	0.73469	0.608045
1216	C	0.756345	0.865179	0.38261
1217	N	0.754025	0.893214	0.378707
1218	C	0.760329	0.91101	0.340047
1219	N	0.76731	0.898291	0.636422
1220	C	0.769859	0.870035	0.637829
1221	C	0.762195	0.850768	0.677675
1222	H	0.747804	0.851745	0.411701
1223	H	0.771475	0.860144	0.607844
1224	C	0.641495	0.892537	0.382547
1225	N	0.6135	0.86215	0.378754
1226	C	0.595482	0.850487	0.340268
1227	N	0.608061	0.870301	0.636693
1228	C	0.636282	0.901137	0.637943
1229	C	0.65578	0.912823	0.677588
1230	H	0.655023	0.897441	0.411557
1231	H	0.646012	0.91263	0.607901
1232	C	0.893822	0.755156	0.382895
1233	N	0.863455	0.752787	0.378851
1234	C	0.851891	0.759063	0.340211
1235	N	0.871769	0.76614	0.636723
1236	C	0.902601	0.76875	0.638178
1237	C	0.914134	0.761016	0.678027
1238	H	0.898655	0.746589	0.412006
1239	H	0.914143	0.7704	0.608213
1240	C	0.751544	0.640152	0.382393
1241	N	0.753936	0.612162	0.378496
1242	C	0.747598	0.594216	0.33995
1243	N	0.740418	0.60688	0.636418
1244	C	0.737793	0.635093	0.637769
1245	C	0.745573	0.654508	0.677484
1246	H	0.760145	0.653623	0.411446
1247	H	0.736064	0.644883	0.607764
1248	C	0.866185	0.612476	0.382701
1249	N	0.894172	0.642895	0.379085
1250	C	0.912253	0.654629	0.340667
1251	N	0.899874	0.634952	0.636928
1252	C	0.871673	0.604089	0.637956
1253	C	0.85213	0.592396	0.677521
1254	H	0.852555	0.607454	0.411634
1255	H	0.861998	0.592664	0.607864
1256	C	0.985663	0.743455	0.991446
1257	C	0.967174	0.760354	0.666226
1258	C	0.932313	0.743746	0.673915
1259	C	0.91506	0.708438	0.677005
1260	C	0.931417	0.689882	0.002182
1261	C	0.965449	0.70746	0.988273
1262	H	0.979008	0.785563	0.670897
1263	O	0.880961	0.691737	0.681193
1264	C	0.522037	0.761668	0.991346
1265	C	0.542246	0.797661	0.988075
1266	C	0.576321	0.815246	0.001773
1267	C	0.592689	0.796695	0.676479
1268	C	0.575419	0.761379	0.673554
1269	C	0.540532	0.744764	0.666062
1270	O	0.626805	0.813383	0.680496
1271	H	0.528686	0.719577	0.670994
1272	O	0.977133	0.687703	0.971543
1273	O	0.53053	0.81741	0.971426
1274	H	0.480896	0.692718	0.939303
1275	H	0.872336	0.688257	0.983659
1276	H	0.635354	0.816876	0.982919
1277	C	0.763041	0.743601	0.991399
1278	C	0.74618	0.708202	0.666085
1279	C	0.762827	0.689937	0.673326
1280	C	0.798144	0.707991	0.676137
1281	C	0.816659	0.742929	0.001579
1282	C	0.799036	0.759429	0.988089
1283	H	0.720986	0.694826	0.670923
1284	O	0.814885	0.690609	0.680027
1285	C	0.744763	0.7617	0.991429
1286	C	0.708767	0.74587	0.988132
1287	C	0.691136	0.762319	0.00181
1288	C	0.709643	0.797244	0.676485
1289	C	0.744955	0.815329	0.673544
1290	C	0.761613	0.797089	0.666169
1291	O	0.692917	0.814632	0.680493
1292	H	0.786813	0.810482	0.670943
1293	O	0.818767	0.790931	0.971543
1294	O	0.689052	0.7144	0.971473
1295	H	0.813751	0.789783	0.939313
1296	H	0.694093	0.715611	0.939246
1297	H	0.818273	0.685512	0.982423
1298	H	0.689446	0.819701	0.982915
1299	C	0.763006	0.520788	0.991372
1300	C	0.798403	0.539306	0.666095
1301	C	0.816684	0.574226	0.673312
1302	C	0.798654	0.591528	0.675919
1303	C	0.763716	0.575101	0.001391
1304	C	0.747195	0.540963	0.987988
1305	H	0.811734	0.527472	0.671212
1306	O	0.816075	0.625653	0.679709
1307	C	0.744881	0.984418	0.991419
1308	C	0.760694	0.964242	0.988065
1309	C	0.74417	0.9301	0.001458
1310	C	0.709227	0.913675	0.675986
1311	C	0.6912	0.930975	0.673312
1312	C	0.709491	0.965897	0.666186
1313	O	0.691838	0.879552	0.679823
1314	H	0.696145	0.977736	0.671131
1315	O	0.715688	0.529175	0.97145
1316	O	0.792196	0.976026	0.971507
1317	H	0.716827	0.02528	0.939226
1318	H	0.791038	0.479879	0.939273
1319	H	0.82111	0.63409	0.982078
1320	H	0.686712	0.871091	0.982208
1321	C	0.613829	0.750019	0.71611
1322	N	0.64423	0.752454	0.71221
1323	C	0.655894	0.746191	0.673651
1324	N	0.636074	0.739038	0.970086
1325	C	0.605219	0.736383	0.971396
1326	C	0.593579	0.744105	0.011155
1327	H	0.608926	0.758596	0.74516
1328	H	0.593723	0.73469	0.941377
1329	C	0.756345	0.865179	0.715943
1330	N	0.754025	0.893214	0.712039
1331	C	0.760329	0.91101	0.673383
1332	N	0.76731	0.898291	0.969754
1333	C	0.769859	0.870035	0.971161
1334	C	0.762195	0.850768	0.01101
1335	H	0.747804	0.851745	0.745033
1336	H	0.771475	0.860144	0.941176
1337	C	0.641495	0.892537	0.715882
1338	N	0.6135	0.86215	0.712086
1339	C	0.595482	0.850487	0.673601
1340	N	0.608061	0.870301	0.970026
1341	C	0.636282	0.901137	0.971275
1342	C	0.65578	0.912823	0.010921
1343	H	0.655023	0.897441	0.744889
1344	H	0.646012	0.91263	0.941233
1345	C	0.893822	0.755156	0.716227
1346	N	0.863455	0.752787	0.712183
1347	C	0.851891	0.759063	0.673544
1348	N	0.871769	0.76614	0.970056
1349	C	0.902601	0.76875	0.97151
1350	C	0.914134	0.761016	0.011359
1351	H	0.898655	0.746589	0.745338
1352	H	0.914143	0.7704	0.941545
1353	C	0.751544	0.640152	0.715725
1354	N	0.753936	0.612162	0.711828
1355	C	0.747598	0.594216	0.673282
1356	N	0.740418	0.60688	0.969751
1357	C	0.737793	0.635093	0.971104
1358	C	0.745573	0.654508	0.010819
1359	H	0.760145	0.653623	0.744778
1360	H	0.736064	0.644883	0.941096
1361	C	0.866185	0.612476	0.716033
1362	N	0.894172	0.642895	0.712421
1363	C	0.912253	0.654629	0.673999
1364	N	0.899874	0.634952	0.970263
1365	C	0.871673	0.604089	0.971292
1366	C	0.85213	0.592396	0.010853
1367	H	0.852555	0.607454	0.744969
1368	H	0.861998	0.592664	0.9412
