data_C864H504O144_2018-02-15_10:35:29
#******************************************
#
# CIF file created by Zeo++
# Zeo++ is an open source package to
# analyze microporous materials
#
#*******************************************

_cell_length_a		46.7017   
_cell_length_b		46.7017   
_cell_length_c		29.6376   
_cell_angle_alpha		90   
_cell_angle_beta		90   
_cell_angle_gamma		120   

_symmetry_space_group_name_H-M		'P1'
_symmetry_Int_Tables_number		1
_symmetry_cell_setting		Monoclinic

loop_
_symmetry_equiv_pos_as_xyz
'+x,+y,+z'

loop_
_atom_site_label
_atom_site_type_symbol
_atom_site_fract_x
_atom_site_fract_y
_atom_site_fract_z
1	C	0.027144	0.265104	0.338725
2	C	0.046369	0.300535	0.338512
3	C	0.081367	0.318552	0.337989
4	C	0.098622	0.300886	0.338303
5	C	0.081409	0.265969	0.004634
6	C	0.046411	0.248944	0.005238
7	H	0.035297	0.314524	0.338397
8	O	0.13241	0.31779	0.338542
9	H	0.138919	0.321084	0.037182
10	H	0.035372	0.223885	0.005242
11	C	0.116263	0.250538	0.296654
12	C	0.1	0.2495	0.004162
13	C	0.114566	0.247021	0.044981
14	H	0.108562	0.255694	0.26694
15	O	0.103476	0.250971	0.085734
16	H	0.082458	0.230514	0.091363
17	C	0.099899	0.353597	0.337193
18	C	0.116338	0.368895	0.296518
19	H	0.108759	0.356082	0.266763
20	C	0.114441	0.370447	0.044596
21	H	0.10534	0.358572	0.074714
22	C	0.027144	0.265104	0.672061
23	C	0.046369	0.300535	0.671845
24	C	0.081367	0.318552	0.671322
25	C	0.098622	0.300886	0.671636
26	C	0.081409	0.265969	0.337969
27	C	0.046411	0.248944	0.338569
28	H	0.035297	0.314524	0.67173
29	O	0.13241	0.31779	0.671879
30	H	0.138919	0.321084	0.370515
31	H	0.035372	0.223885	0.338573
32	C	0.116263	0.250538	0.629986
33	C	0.1	0.2495	0.337493
34	C	0.114566	0.247021	0.378316
35	H	0.108562	0.255694	0.600274
36	O	0.103476	0.250971	0.419068
37	H	0.082458	0.230514	0.424696
38	C	0.099899	0.353597	0.670526
39	C	0.116338	0.368895	0.629851
40	H	0.108759	0.356082	0.600098
41	C	0.114441	0.370447	0.377928
42	H	0.10534	0.358572	0.408049
43	C	0.027144	0.265104	0.005394
44	C	0.046369	0.300535	0.005178
45	C	0.081367	0.318552	0.004658
46	C	0.098622	0.300886	0.004972
47	C	0.081409	0.265969	0.671302
48	C	0.046411	0.248944	0.671906
49	H	0.035297	0.314524	0.005063
50	O	0.13241	0.31779	0.005211
51	H	0.138919	0.321084	0.703848
52	H	0.035372	0.223885	0.671909
53	C	0.116263	0.250538	0.963322
54	C	0.1	0.2495	0.670826
55	C	0.114566	0.247021	0.711649
56	H	0.108562	0.255694	0.933607
57	O	0.103476	0.250971	0.752401
58	H	0.082458	0.230514	0.758033
59	C	0.099899	0.353597	0.003862
60	C	0.116338	0.368895	0.963187
61	H	0.108759	0.356082	0.933431
62	C	0.114441	0.370447	0.711264
63	H	0.10534	0.358572	0.741381
64	C	0.027145	0.765105	0.338725
65	C	0.046368	0.800536	0.338512
66	C	0.081367	0.818553	0.337989
67	C	0.098623	0.800887	0.338303
68	C	0.081408	0.765968	0.004634
69	C	0.04641	0.748943	0.005238
70	H	0.035296	0.814523	0.338397
71	O	0.132409	0.817789	0.338542
72	H	0.138918	0.821085	0.037182
73	H	0.035371	0.723884	0.005242
74	C	0.116262	0.750537	0.296654
75	C	0.1	0.749501	0.004162
76	C	0.114566	0.747021	0.044981
77	H	0.108563	0.755695	0.26694
78	O	0.103475	0.75097	0.085734
79	H	0.082456	0.730513	0.091363
80	C	0.099899	0.853596	0.337193
81	C	0.116337	0.868893	0.296518
82	H	0.108758	0.856081	0.266763
83	C	0.114439	0.870446	0.044596
84	H	0.105339	0.858571	0.074714
85	C	0.027145	0.765105	0.672061
86	C	0.046368	0.800536	0.671845
87	C	0.081367	0.818553	0.671322
88	C	0.098623	0.800887	0.671636
89	C	0.081408	0.765968	0.337969
90	C	0.04641	0.748943	0.338569
91	H	0.035296	0.814523	0.67173
92	O	0.132409	0.817789	0.671879
93	H	0.138918	0.821085	0.370515
94	H	0.035371	0.723884	0.338573
95	C	0.116262	0.750537	0.629986
96	C	0.1	0.749501	0.337493
97	C	0.114566	0.747021	0.378316
98	H	0.108563	0.755695	0.600274
99	O	0.103475	0.75097	0.419068
100	H	0.082456	0.730513	0.424696
101	C	0.099899	0.853596	0.670526
102	C	0.116337	0.868893	0.629851
103	H	0.108758	0.856081	0.600098
104	C	0.114439	0.870446	0.377928
105	H	0.105339	0.858571	0.408049
106	C	0.027145	0.765105	0.005394
107	C	0.046368	0.800536	0.005178
108	C	0.081367	0.818553	0.004658
109	C	0.098623	0.800887	0.004972
110	C	0.081408	0.765968	0.671302
111	C	0.04641	0.748943	0.671906
112	H	0.035296	0.814523	0.005063
113	O	0.132409	0.817789	0.005211
114	H	0.138918	0.821085	0.703848
115	H	0.035371	0.723884	0.671909
116	C	0.116262	0.750537	0.963322
117	C	0.1	0.749501	0.670826
118	C	0.114566	0.747021	0.711649
119	H	0.108563	0.755695	0.933607
120	O	0.103475	0.75097	0.752401
121	H	0.082456	0.730513	0.758033
122	C	0.099899	0.853596	0.003862
123	C	0.116337	0.868893	0.963187
124	H	0.108758	0.856081	0.933431
125	C	0.114439	0.870446	0.711264
126	H	0.105339	0.858571	0.741381
127	C	0.21473	0.248845	0.338492
128	C	0.196708	0.265823	0.338023
129	C	0.214375	0.300745	0.338326
130	H	0.200743	0.223783	0.33835
131	O	0.197471	0.31763	0.338468
132	H	0.19414	0.320861	0.037087
133	H	0.22693	0.19767	0.005134
134	C	0.214507	0.416698	0.338256
135	C	0.196801	0.433909	0.004658
136	C	0.214768	0.468907	0.005289
137	O	0.197627	0.382909	0.338391
138	H	0.22686	0.032242	0.338161
139	H	0.194318	0.376342	0.037006
140	H	0.200745	0.479942	0.005407
141	C	0.161654	0.249307	0.337158
142	C	0.146382	0.250422	0.296463
143	H	0.159188	0.255612	0.266707
144	C	0.144905	0.247166	0.04459
145	H	0.156756	0.249802	0.0747
146	C	0.146519	0.399059	0.296668
147	C	0.16174	0.415311	0.004179
148	C	0.144699	0.400728	0.044994
149	H	0.159421	0.406766	0.26699
150	O	0.159751	0.411904	0.085718
151	H	0.160069	0.432796	0.091409
152	C	0.21473	0.248845	0.671828
153	C	0.196708	0.265823	0.671356
154	C	0.214375	0.300745	0.671663
155	H	0.200743	0.223783	0.671683
156	O	0.197471	0.31763	0.671804
157	H	0.19414	0.320861	0.370421
158	H	0.22693	0.19767	0.338465
159	C	0.214507	0.416698	0.671592
160	C	0.196801	0.433909	0.337989
161	C	0.214768	0.468907	0.338623
162	O	0.197627	0.382909	0.671723
163	H	0.22686	0.032242	0.671497
164	H	0.194318	0.376342	0.37034
165	H	0.200745	0.479942	0.338741
166	C	0.161654	0.249307	0.670492
167	C	0.146382	0.250422	0.629797
168	H	0.159188	0.255612	0.600041
169	C	0.144905	0.247166	0.377925
170	H	0.156756	0.249802	0.408035
171	C	0.146519	0.399059	0.630003
172	C	0.16174	0.415311	0.337513
173	C	0.144699	0.400728	0.37833
174	H	0.159421	0.406766	0.600324
175	O	0.159751	0.411904	0.419051
176	H	0.160069	0.432796	0.424744
177	C	0.21473	0.248845	0.005161
178	C	0.196708	0.265823	0.004688
179	C	0.214375	0.300745	0.004995
180	H	0.200743	0.223783	0.005019
181	O	0.197471	0.31763	0.005137
182	H	0.19414	0.320861	0.703754
183	H	0.22693	0.19767	0.671798
184	C	0.214507	0.416698	0.004925
185	C	0.196801	0.433909	0.671322
186	C	0.214768	0.468907	0.671956
187	O	0.197627	0.382909	0.005056
188	H	0.22686	0.032242	0.00483
189	H	0.194318	0.376342	0.703673
190	H	0.200745	0.479942	0.672074
191	C	0.161654	0.249307	0.003825
192	C	0.146382	0.250422	0.96313
193	H	0.159188	0.255612	0.933374
194	C	0.144905	0.247166	0.711258
195	H	0.156756	0.249802	0.741368
196	C	0.146519	0.399059	0.963336
197	C	0.16174	0.415311	0.670846
198	C	0.144699	0.400728	0.711662
199	H	0.159421	0.406766	0.933657
200	O	0.159751	0.411904	0.752384
201	H	0.160069	0.432796	0.758076
202	C	0.214729	0.748844	0.338492
203	C	0.196707	0.765822	0.338023
204	C	0.214374	0.800744	0.338326
205	H	0.200743	0.723782	0.33835
206	O	0.197471	0.817631	0.338468
207	H	0.194139	0.82086	0.037087
208	H	0.22693	0.69767	0.005134
209	C	0.214506	0.916697	0.338256
210	C	0.1968	0.933908	0.004658
211	C	0.214768	0.968906	0.005289
212	O	0.197627	0.882908	0.338391
213	H	0.22686	0.532243	0.338161
214	H	0.194317	0.876341	0.037006
215	H	0.200744	0.979941	0.005407
216	C	0.161653	0.749306	0.337158
217	C	0.146381	0.750421	0.296463
218	H	0.159187	0.755611	0.266707
219	C	0.144905	0.747165	0.04459
220	H	0.156755	0.7498	0.0747
221	C	0.146518	0.899058	0.296668
222	C	0.161741	0.915312	0.004179
223	C	0.144697	0.900727	0.044994
224	H	0.15942	0.906765	0.26699
225	O	0.159751	0.911903	0.085718
226	H	0.160067	0.932795	0.091409
227	C	0.214729	0.748844	0.671825
228	C	0.196707	0.765822	0.671356
229	C	0.214374	0.800744	0.671663
230	H	0.200743	0.723782	0.671683
231	O	0.197471	0.817631	0.671804
232	H	0.194139	0.82086	0.370421
233	H	0.22693	0.69767	0.338465
234	C	0.214506	0.916697	0.671592
235	C	0.1968	0.933908	0.337989
236	C	0.214768	0.968906	0.338623
237	O	0.197627	0.882908	0.671723
238	H	0.22686	0.532243	0.671494
239	H	0.194317	0.876341	0.37034
240	H	0.200744	0.979941	0.338741
241	C	0.161653	0.749306	0.670492
242	C	0.146381	0.750421	0.629797
243	H	0.159187	0.755611	0.600041
244	C	0.144905	0.747165	0.377925
245	H	0.156755	0.7498	0.408035
246	C	0.146518	0.899058	0.630003
247	C	0.161741	0.915312	0.337513
248	C	0.144697	0.900727	0.37833
249	H	0.15942	0.906765	0.600324
250	O	0.159751	0.911903	0.419051
251	H	0.160067	0.932795	0.424744
252	C	0.214729	0.748844	0.005161
253	C	0.196707	0.765822	0.004688
254	C	0.214374	0.800744	0.004995
255	H	0.200743	0.723782	0.005019
256	O	0.197471	0.817631	0.005137
257	H	0.194139	0.82086	0.703754
258	H	0.22693	0.69767	0.671798
259	C	0.214506	0.916697	0.004925
260	C	0.1968	0.933908	0.671322
261	C	0.214768	0.968906	0.671956
262	O	0.197627	0.882908	0.005056
263	H	0.22686	0.532243	0.00483
264	H	0.194317	0.876341	0.703673
265	H	0.200744	0.979941	0.672074
266	C	0.161653	0.749306	0.003825
267	C	0.146381	0.750421	0.96313
268	H	0.159187	0.755611	0.933374
269	C	0.144905	0.747165	0.711258
270	H	0.156755	0.7498	0.741368
271	C	0.146518	0.899058	0.963336
272	C	0.161741	0.915312	0.670846
273	C	0.144697	0.900727	0.711662
274	H	0.15942	0.906765	0.933657
275	O	0.159751	0.911903	0.752384
276	H	0.160067	0.932795	0.758076
277	C	0.250161	0.265052	0.338664
278	C	0.249291	0.318446	0.004678
279	C	0.266321	0.300478	0.005151
280	C	0.268147	0.24712	0.33866
281	C	0.251988	0.211693	0.005171
282	C	0.269018	0.193725	0.004628
283	H	0.291379	0.314502	0.005093
284	C	0.250195	0.488175	0.338677
285	C	0.266406	0.468957	0.338364
286	C	0.249429	0.433958	0.337962
287	H	0.291466	0.480031	0.33809
288	C	0.268127	0.024093	0.338691
289	C	0.268902	0.078317	0.338063
290	C	0.25192	0.043316	0.338431
291	C	0.265939	0.415427	0.336925
292	C	0.26498	0.399042	0.29633
293	C	0.26492	0.368843	0.29654
294	C	0.265736	0.353493	0.00402
295	C	0.267992	0.370484	0.044849
296	H	0.26003	0.356062	0.266793
297	H	0.260078	0.406798	0.26648
298	C	0.267916	0.400721	0.044393
299	H	0.265116	0.409822	0.074504
300	O	0.26393	0.355437	0.085619
301	H	0.2844	0.354937	0.091426
302	C	0.252389	0.096856	0.337195
303	C	0.253471	0.113191	0.296466
304	C	0.253519	0.143385	0.296536
305	C	0.252559	0.158658	0.004
306	C	0.250239	0.141778	0.04494
307	H	0.258473	0.156169	0.266783
308	H	0.258412	0.105396	0.266673
309	C	0.250352	0.111565	0.044596
310	H	0.253037	0.102423	0.074739
311	O	0.254127	0.156874	0.085636
312	H	0.233579	0.157258	0.091273
313	C	0.250161	0.265052	0.672
314	C	0.249291	0.318446	0.338009
315	C	0.266321	0.300478	0.338485
316	C	0.268147	0.24712	0.671993
317	C	0.251988	0.211693	0.338502
318	C	0.269018	0.193725	0.337962
319	H	0.291379	0.314502	0.338424
320	C	0.250195	0.488175	0.67201
321	C	0.266406	0.468957	0.671696
322	C	0.249429	0.433958	0.671295
323	H	0.291466	0.480031	0.671423
324	C	0.268127	0.024093	0.672024
325	C	0.268902	0.078317	0.671396
326	C	0.25192	0.043316	0.671767
327	C	0.265939	0.415427	0.670259
328	C	0.26498	0.399042	0.629665
329	C	0.26492	0.368843	0.629875
330	C	0.265736	0.353493	0.337352
331	C	0.267992	0.370484	0.378185
332	H	0.26003	0.356062	0.600129
333	H	0.260078	0.406798	0.599815
334	C	0.267916	0.400721	0.377726
335	H	0.265116	0.409822	0.407836
336	O	0.26393	0.355437	0.418954
337	H	0.2844	0.354937	0.42476
338	C	0.252389	0.096856	0.670529
339	C	0.253471	0.113191	0.6298
340	C	0.253519	0.143385	0.629871
341	C	0.252559	0.158658	0.337331
342	C	0.250239	0.141778	0.378276
343	H	0.258473	0.156169	0.600115
344	H	0.258412	0.105396	0.600007
345	C	0.250352	0.111565	0.377931
346	H	0.253037	0.102423	0.408072
347	O	0.254127	0.156874	0.418971
348	H	0.233579	0.157258	0.424605
349	C	0.250161	0.265052	0.005333
350	C	0.249291	0.318446	0.671342
351	C	0.266321	0.300478	0.671818
352	C	0.268147	0.24712	0.005326
353	C	0.251988	0.211693	0.671838
354	C	0.269018	0.193725	0.671295
355	H	0.291379	0.314502	0.67176
356	C	0.250195	0.488175	0.005343
357	C	0.266406	0.468957	0.005029
358	C	0.249429	0.433958	0.004631
359	H	0.291466	0.480031	0.004756
360	C	0.268127	0.024093	0.00536
361	C	0.268902	0.078317	0.004732
362	C	0.25192	0.043316	0.0051
363	C	0.265939	0.415427	0.003592
364	C	0.26498	0.399042	0.962998
365	C	0.26492	0.368843	0.963207
366	C	0.265736	0.353493	0.670684
367	C	0.267992	0.370484	0.711517
368	H	0.26003	0.356062	0.933461
369	H	0.260078	0.406798	0.933148
370	C	0.267916	0.400721	0.711062
371	H	0.265116	0.409822	0.741172
372	O	0.26393	0.355437	0.752286
373	H	0.2844	0.354937	0.758093
374	C	0.252389	0.096856	0.003862
375	C	0.253471	0.113191	0.963133
376	C	0.253519	0.143385	0.963204
377	C	0.252559	0.158658	0.670664
378	C	0.250239	0.141778	0.711608
379	H	0.258473	0.156169	0.933451
380	H	0.258412	0.105396	0.93334
381	C	0.250352	0.111565	0.711264
382	H	0.253037	0.102423	0.741405
383	O	0.254127	0.156874	0.752303
384	H	0.233579	0.157258	0.757941
385	C	0.25016	0.765051	0.338664
386	C	0.249289	0.818445	0.004678
387	C	0.266321	0.800479	0.005151
388	C	0.268146	0.74712	0.33866
389	C	0.251987	0.711692	0.005171
390	C	0.269017	0.693724	0.004628
391	H	0.291378	0.814501	0.005093
392	C	0.250193	0.988174	0.338677
393	C	0.266405	0.968955	0.338364
394	C	0.249429	0.933957	0.337962
395	H	0.291465	0.98003	0.33809
396	C	0.268127	0.524093	0.338691
397	C	0.268901	0.578315	0.338063
398	C	0.25192	0.543317	0.338431
399	C	0.265939	0.915428	0.336925
400	C	0.264979	0.899041	0.29633
401	C	0.26492	0.868844	0.29654
402	C	0.265735	0.853492	0.00402
403	C	0.267991	0.870483	0.044849
404	H	0.260029	0.856061	0.266793
405	H	0.260077	0.906797	0.26648
406	C	0.267915	0.900719	0.044393
407	H	0.265115	0.909821	0.074504
408	O	0.263931	0.855438	0.085619
409	H	0.2844	0.854939	0.091426
410	C	0.252388	0.596857	0.337195
411	C	0.25347	0.61319	0.296466
412	C	0.253518	0.643384	0.296536
413	C	0.252557	0.658657	0.004
414	C	0.250239	0.641777	0.04494
415	H	0.258472	0.656169	0.266783
416	H	0.25841	0.605394	0.266673
417	C	0.250352	0.611565	0.044596
418	H	0.253037	0.602422	0.074739
419	O	0.254127	0.656874	0.085636
420	H	0.233579	0.657257	0.091273
421	C	0.25016	0.765051	0.672
422	C	0.249289	0.818445	0.338009
423	C	0.266321	0.800479	0.338485
424	C	0.268146	0.74712	0.671993
425	C	0.251987	0.711692	0.338502
426	C	0.269017	0.693724	0.337962
427	H	0.291378	0.814501	0.338424
428	C	0.250193	0.988174	0.67201
429	C	0.266405	0.968955	0.671696
430	C	0.249429	0.933957	0.671295
431	H	0.291465	0.98003	0.671423
432	C	0.268127	0.524093	0.672024
433	C	0.268901	0.578315	0.671396
434	C	0.25192	0.543317	0.671767
435	C	0.265939	0.915428	0.670259
436	C	0.264979	0.899041	0.629665
437	C	0.26492	0.868844	0.629875
438	C	0.265735	0.853492	0.337352
439	C	0.267991	0.870483	0.378185
440	H	0.260029	0.856061	0.600129
441	H	0.260077	0.906797	0.599815
442	C	0.267915	0.900719	0.377726
443	H	0.265115	0.909821	0.407836
444	O	0.263931	0.855438	0.418954
445	H	0.2844	0.854939	0.42476
446	C	0.252388	0.596857	0.670529
447	C	0.25347	0.61319	0.6298
448	C	0.253518	0.643384	0.629871
449	C	0.252557	0.658657	0.337331
450	C	0.250239	0.641777	0.378276
451	H	0.258472	0.656169	0.600115
452	H	0.25841	0.605394	0.600007
453	C	0.250352	0.611565	0.377931
454	H	0.253037	0.602422	0.408072
455	O	0.254127	0.656874	0.418971
456	H	0.233579	0.657257	0.424605
457	C	0.25016	0.765051	0.005333
458	C	0.249289	0.818445	0.671342
459	C	0.266321	0.800479	0.671818
460	C	0.268146	0.74712	0.005326
461	C	0.251987	0.711692	0.671838
462	C	0.269017	0.693724	0.671295
463	H	0.291378	0.814501	0.67176
464	C	0.250193	0.988174	0.005343
465	C	0.266405	0.968955	0.005029
466	C	0.249429	0.933957	0.004631
467	H	0.291465	0.98003	0.004756
468	C	0.268127	0.524093	0.00536
469	C	0.268901	0.578315	0.004732
470	C	0.25192	0.543317	0.0051
471	C	0.265939	0.915428	0.003592
472	C	0.264979	0.899041	0.962998
473	C	0.26492	0.868844	0.963207
474	C	0.265735	0.853492	0.670684
475	C	0.267991	0.870483	0.711517
476	H	0.260029	0.856061	0.933461
477	H	0.260077	0.906797	0.933148
478	C	0.267915	0.900719	0.711062
479	H	0.265115	0.909821	0.741172
480	O	0.263931	0.855438	0.752286
481	H	0.2844	0.854939	0.758093
482	C	0.252388	0.596857	0.003862
483	C	0.25347	0.61319	0.963133
484	C	0.253518	0.643384	0.963204
485	C	0.252557	0.658657	0.670664
486	C	0.250239	0.641777	0.711608
487	H	0.258472	0.656169	0.933451
488	H	0.25841	0.605394	0.93334
489	C	0.250352	0.611565	0.711264
490	H	0.253037	0.602422	0.741405
491	O	0.254127	0.656874	0.752303
492	H	0.233579	0.657257	0.757941
493	C	0.491228	0.247125	0.338721
494	C	0.471965	0.263292	0.005181
495	C	0.436968	0.246268	0.004607
496	C	0.41975	0.211352	0.338232
497	C	0.437001	0.193681	0.337976
498	C	0.472001	0.211694	0.338549
499	O	0.385961	0.194457	0.338387
500	H	0.483072	0.197705	0.338472
501	H	0.379407	0.191126	0.037009
502	H	0.483003	0.288348	0.005144
503	C	0.303935	0.21143	0.338272
504	C	0.321599	0.246352	0.337989
505	C	0.303579	0.263331	0.338458
506	O	0.320838	0.194545	0.338424
507	H	0.317566	0.288392	0.33833
508	H	0.32415	0.191302	0.037045
509	C	0.303555	0.043357	0.005275
510	C	0.321527	0.078355	0.004746
511	C	0.303825	0.09557	0.338448
512	O	0.320712	0.129357	0.338684
513	H	0.323991	0.135869	0.037322
514	H	0.317576	0.032321	0.005329
515	C	0.356633	0.262847	0.337138
516	C	0.372002	0.261813	0.296463
517	C	0.402188	0.26184	0.2965
518	C	0.418376	0.262743	0.003966
519	C	0.403817	0.265089	0.044875
520	H	0.409911	0.256764	0.266751
521	H	0.359234	0.256801	0.266693
522	C	0.373479	0.264951	0.044501
523	H	0.361604	0.262194	0.074621
524	O	0.414895	0.261084	0.08561
525	H	0.435922	0.281524	0.091268
526	C	0.418459	0.158635	0.337209
527	C	0.402	0.143326	0.29655
528	C	0.3718	0.113177	0.296724
529	C	0.356586	0.096942	0.00425
530	C	0.373644	0.111525	0.045053
531	H	0.358887	0.105468	0.267055
532	H	0.409584	0.156121	0.266782
533	C	0.403882	0.141819	0.044619
534	H	0.413084	0.153693	0.074714
535	O	0.358618	0.100359	0.085793
536	H	0.358244	0.079432	0.091439
537	C	0.491228	0.247125	0.672057
538	C	0.471965	0.263292	0.338512
539	C	0.436968	0.246268	0.337938
540	C	0.41975	0.211352	0.671565
541	C	0.437001	0.193681	0.671308
542	C	0.472001	0.211694	0.671885
543	O	0.385961	0.194457	0.671723
544	H	0.483072	0.197705	0.671804
545	H	0.379407	0.191126	0.370343
546	H	0.483003	0.288348	0.338475
547	C	0.303935	0.21143	0.671605
548	C	0.321599	0.246352	0.671325
549	C	0.303579	0.263331	0.671791
550	O	0.320838	0.194545	0.67176
551	H	0.317566	0.288392	0.671663
552	H	0.32415	0.191302	0.37038
553	C	0.303555	0.043357	0.33861
554	C	0.321527	0.078355	0.338077
555	C	0.303825	0.09557	0.671781
556	O	0.320712	0.129357	0.67202
557	H	0.323991	0.135869	0.370657
558	H	0.317576	0.032321	0.338664
559	C	0.356633	0.262847	0.670472
560	C	0.372002	0.261813	0.629797
561	C	0.402188	0.26184	0.629834
562	C	0.418376	0.262743	0.337299
563	C	0.403817	0.265089	0.378208
564	H	0.409911	0.256764	0.600085
565	H	0.359234	0.256801	0.600027
566	C	0.373479	0.264951	0.377834
567	H	0.361604	0.262194	0.407954
568	O	0.414895	0.261084	0.418944
569	H	0.435922	0.281524	0.424602
570	C	0.418459	0.158635	0.670542
571	C	0.402	0.143326	0.629885
572	C	0.3718	0.113177	0.630057
573	C	0.356586	0.096942	0.337581
574	C	0.373644	0.111525	0.378387
575	H	0.358887	0.105468	0.600388
576	H	0.409584	0.156121	0.600115
577	C	0.403882	0.141819	0.377952
578	H	0.413084	0.153693	0.408049
579	O	0.358618	0.100359	0.419126
580	H	0.358244	0.079432	0.424774
581	C	0.491228	0.247125	0.00539
582	C	0.471965	0.263292	0.671845
583	C	0.436968	0.246268	0.671275
584	C	0.41975	0.211352	0.004901
585	C	0.437001	0.193681	0.004641
586	C	0.472001	0.211694	0.005218
587	O	0.385961	0.194457	0.005056
588	H	0.483072	0.197705	0.005137
589	H	0.379407	0.191126	0.703676
590	H	0.483003	0.288348	0.671808
591	C	0.303935	0.21143	0.004941
592	C	0.321599	0.246352	0.004658
593	C	0.303579	0.263331	0.005124
594	O	0.320838	0.194545	0.005093
595	H	0.317566	0.288392	0.004999
596	H	0.32415	0.191302	0.703713
597	C	0.303555	0.043357	0.671943
598	C	0.321527	0.078355	0.671413
599	C	0.303825	0.09557	0.005117
600	O	0.320712	0.129357	0.005353
601	H	0.323991	0.135869	0.70399
602	H	0.317576	0.032321	0.671997
603	C	0.356633	0.262847	0.003808
604	C	0.372002	0.261813	0.96313
605	C	0.402188	0.26184	0.963167
606	C	0.418376	0.262743	0.670634
607	C	0.403817	0.265089	0.711541
608	H	0.409911	0.256764	0.933418
609	H	0.359234	0.256801	0.93336
610	C	0.373479	0.264951	0.71117
611	H	0.361604	0.262194	0.74129
612	O	0.414895	0.261084	0.752276
613	H	0.435922	0.281524	0.757935
614	C	0.418459	0.158635	0.003879
615	C	0.402	0.143326	0.963217
616	C	0.3718	0.113177	0.963393
617	C	0.356586	0.096942	0.670917
618	C	0.373644	0.111525	0.71172
619	H	0.358887	0.105468	0.933721
620	H	0.409584	0.156121	0.933451
621	C	0.403882	0.141819	0.711288
622	H	0.413084	0.153693	0.741381
623	O	0.358618	0.100359	0.752462
624	H	0.358244	0.079432	0.758107
625	C	0.491227	0.747125	0.338721
626	C	0.471965	0.76329	0.005181
627	C	0.436967	0.746267	0.004607
628	C	0.419748	0.711351	0.338232
629	C	0.437	0.69368	0.337976
630	C	0.471999	0.711694	0.338549
631	O	0.38596	0.694456	0.338387
632	H	0.48307	0.697705	0.338472
633	H	0.379407	0.691126	0.037009
634	H	0.483002	0.788347	0.005144
635	C	0.303934	0.71143	0.338272
636	C	0.321598	0.746351	0.337989
637	C	0.303578	0.76333	0.338458
638	O	0.320838	0.694545	0.338424
639	H	0.317565	0.788391	0.33833
640	H	0.32415	0.691301	0.037045
641	C	0.303553	0.543357	0.005275
642	C	0.321526	0.578355	0.004746
643	C	0.303824	0.595568	0.338448
644	O	0.320711	0.629355	0.338684
645	H	0.323991	0.635868	0.037322
646	H	0.317576	0.532322	0.005329
647	C	0.356634	0.762848	0.337138
648	C	0.372002	0.761814	0.296463
649	C	0.402189	0.761842	0.2965
650	C	0.418375	0.762742	0.003966
651	C	0.403815	0.765088	0.044875
652	H	0.409911	0.756763	0.266751
653	H	0.359232	0.7568	0.266693
654	C	0.373477	0.76495	0.044501
655	H	0.361605	0.762195	0.074621
656	O	0.414895	0.761083	0.08561
657	H	0.435921	0.781525	0.091268
658	C	0.418459	0.658634	0.337209
659	C	0.401998	0.643325	0.29655
660	C	0.371798	0.613178	0.296724
661	C	0.356585	0.596941	0.00425
662	C	0.373644	0.611526	0.045053
663	H	0.358888	0.605468	0.267055
664	H	0.409582	0.65612	0.266782
665	C	0.403881	0.641819	0.044619
666	H	0.413083	0.653692	0.074714
667	O	0.358618	0.600358	0.085793
668	H	0.358242	0.57943	0.091439
669	C	0.491227	0.747125	0.672057
670	C	0.471965	0.76329	0.338512
671	C	0.436967	0.746267	0.337938
672	C	0.419748	0.711351	0.671565
673	C	0.437	0.69368	0.671308
674	C	0.471999	0.711694	0.671885
675	O	0.38596	0.694456	0.671723
676	H	0.48307	0.697705	0.671804
677	H	0.379407	0.691126	0.370343
678	H	0.483002	0.788347	0.338475
679	C	0.303934	0.71143	0.671605
680	C	0.321598	0.746351	0.671325
681	C	0.303578	0.76333	0.671791
682	O	0.320838	0.694545	0.67176
683	H	0.317565	0.788391	0.671663
684	H	0.32415	0.691301	0.37038
685	C	0.303553	0.543357	0.33861
686	C	0.321526	0.578355	0.338077
687	C	0.303824	0.595568	0.671781
688	O	0.320711	0.629355	0.67202
689	H	0.323991	0.635868	0.370657
690	H	0.317576	0.532322	0.338664
691	C	0.356634	0.762848	0.670472
692	C	0.372002	0.761814	0.629797
693	C	0.402189	0.761842	0.629834
694	C	0.418375	0.762742	0.337299
695	C	0.403815	0.765088	0.378208
696	H	0.409911	0.756763	0.600085
697	H	0.359232	0.7568	0.600027
698	C	0.373477	0.76495	0.377834
699	H	0.361605	0.762195	0.407954
700	O	0.414895	0.761083	0.418944
701	H	0.435921	0.781525	0.424602
702	C	0.418459	0.658634	0.670542
703	C	0.401998	0.643325	0.629885
704	C	0.371798	0.613178	0.630057
705	C	0.356585	0.596941	0.337581
706	C	0.373644	0.611526	0.378387
707	H	0.358888	0.605468	0.600388
708	H	0.409582	0.65612	0.600115
709	C	0.403881	0.641819	0.377952
710	H	0.413083	0.653692	0.408049
711	O	0.358618	0.600358	0.419126
712	H	0.358242	0.57943	0.424774
713	C	0.491227	0.747125	0.00539
714	C	0.471965	0.76329	0.671845
715	C	0.436967	0.746267	0.671275
716	C	0.419748	0.711351	0.004901
717	C	0.437	0.69368	0.004641
718	C	0.471999	0.711694	0.005218
719	O	0.38596	0.694456	0.005056
720	H	0.48307	0.697705	0.005137
721	H	0.379407	0.691126	0.703676
722	H	0.483002	0.788347	0.671808
723	C	0.303934	0.71143	0.004941
724	C	0.321598	0.746351	0.004658
725	C	0.303578	0.76333	0.005124
726	O	0.320838	0.694545	0.005093
727	H	0.317565	0.788391	0.004999
728	H	0.32415	0.691301	0.703713
729	C	0.303553	0.543357	0.671943
730	C	0.321526	0.578355	0.671413
731	C	0.303824	0.595568	0.005117
732	O	0.320711	0.629355	0.005353
733	H	0.323991	0.635868	0.70399
734	H	0.317576	0.532322	0.671997
735	C	0.356634	0.762848	0.003808
736	C	0.372002	0.761814	0.96313
737	C	0.402189	0.761842	0.963167
738	C	0.418375	0.762742	0.670634
739	C	0.403815	0.765088	0.711541
740	H	0.409911	0.756763	0.933418
741	H	0.359232	0.7568	0.93336
742	C	0.373477	0.76495	0.71117
743	H	0.361605	0.762195	0.74129
744	O	0.414895	0.761083	0.752276
745	H	0.435921	0.781525	0.757935
746	C	0.418459	0.658634	0.003879
747	C	0.401998	0.643325	0.963217
748	C	0.371798	0.613178	0.963393
749	C	0.356585	0.596941	0.670917
750	C	0.373644	0.611526	0.71172
751	H	0.358888	0.605468	0.933721
752	H	0.409582	0.65612	0.933451
753	C	0.403881	0.641819	0.711288
754	H	0.413083	0.653692	0.741381
755	O	0.358618	0.600358	0.752462
756	H	0.358242	0.57943	0.758107
757	C	0.527143	0.265104	0.338725
758	C	0.546368	0.300535	0.338512
759	C	0.581367	0.318552	0.337989
760	C	0.598623	0.300886	0.338303
761	C	0.581409	0.265969	0.004634
762	C	0.546411	0.248944	0.005238
763	H	0.535297	0.314524	0.338397
764	O	0.632411	0.31779	0.338542
765	C	0.991227	0.247125	0.338721
766	C	0.971966	0.263292	0.005181
767	C	0.936967	0.246268	0.004607
768	C	0.919749	0.211352	0.338232
769	C	0.937	0.193681	0.337976
770	C	0.972	0.211694	0.338549
771	O	0.885962	0.194457	0.338387
772	H	0.983071	0.197705	0.338472
773	H	0.638918	0.321084	0.037182
774	H	0.879408	0.191126	0.037009
775	H	0.535372	0.223885	0.005242
776	H	0.983004	0.288348	0.005144
777	C	0.750161	0.265052	0.338664
778	C	0.71473	0.248845	0.338492
779	C	0.696709	0.265823	0.338023
780	C	0.714375	0.300745	0.338326
781	C	0.749291	0.318446	0.004678
782	C	0.766321	0.300478	0.005151
783	H	0.700743	0.223783	0.33835
784	O	0.697472	0.31763	0.338468
785	C	0.768147	0.24712	0.33866
786	C	0.751988	0.211693	0.005171
787	C	0.769017	0.193725	0.004628
788	C	0.803936	0.21143	0.338272
789	C	0.8216	0.246352	0.337989
790	C	0.803579	0.263331	0.338458
791	O	0.820839	0.194545	0.338424
792	H	0.817565	0.288392	0.33833
793	H	0.694141	0.320861	0.037087
794	H	0.824151	0.191302	0.037045
795	H	0.79138	0.314502	0.005093
796	H	0.72693	0.19767	0.005134
797	C	0.750195	0.488175	0.338677
798	C	0.766407	0.468957	0.338364
799	C	0.749428	0.433958	0.337962
800	C	0.714508	0.416698	0.338256
801	C	0.696802	0.433909	0.004658
802	C	0.714768	0.468907	0.005289
803	H	0.791466	0.480031	0.33809
804	O	0.697628	0.382909	0.338391
805	C	0.768128	0.024093	0.338691
806	C	0.803554	0.043357	0.005275
807	C	0.821526	0.078355	0.004746
808	C	0.803826	0.09557	0.338448
809	C	0.768903	0.078317	0.338063
810	C	0.751921	0.043316	0.338431
811	O	0.820713	0.129357	0.338684
812	H	0.726859	0.032242	0.338161
813	H	0.694317	0.376342	0.037006
814	H	0.823992	0.135869	0.037322
815	H	0.700746	0.479942	0.005407
816	H	0.817575	0.032321	0.005329
817	C	0.661653	0.249307	0.337158
818	C	0.646382	0.250422	0.296463
819	C	0.616264	0.250538	0.296654
820	C	0.6	0.2495	0.004162
821	C	0.614565	0.247021	0.044981
822	H	0.608561	0.255694	0.26694
823	H	0.659189	0.255612	0.266707
824	C	0.644906	0.247166	0.04459
825	H	0.656755	0.249802	0.0747
826	O	0.603476	0.250971	0.085734
827	H	0.582458	0.230514	0.091363
828	C	0.765939	0.415427	0.336925
829	C	0.76498	0.399042	0.29633
830	C	0.76492	0.368843	0.29654
831	C	0.765736	0.353493	0.00402
832	C	0.767991	0.370484	0.044849
833	H	0.760031	0.356062	0.266793
834	H	0.760078	0.406798	0.26648
835	C	0.767917	0.400721	0.044393
836	H	0.765115	0.409822	0.074504
837	O	0.76393	0.355437	0.085619
838	H	0.784399	0.354937	0.091426
839	C	0.599898	0.353597	0.337193
840	C	0.616339	0.368895	0.296518
841	C	0.646519	0.399059	0.296668
842	C	0.661739	0.415311	0.004179
843	C	0.644699	0.400728	0.044994
844	H	0.659422	0.406766	0.26699
845	H	0.608759	0.356082	0.266763
846	C	0.614441	0.370447	0.044596
847	H	0.605339	0.358572	0.074714
848	O	0.659751	0.411904	0.085718
849	H	0.660069	0.432796	0.091409
850	C	0.856634	0.262847	0.337138
851	C	0.872001	0.261813	0.296463
852	C	0.902187	0.26184	0.2965
853	C	0.918377	0.262743	0.003966
854	C	0.903816	0.265089	0.044875
855	H	0.909912	0.256764	0.266751
856	H	0.859232	0.256801	0.266693
857	C	0.873478	0.264951	0.044501
858	H	0.861605	0.262194	0.074621
859	O	0.914896	0.261084	0.08561
860	H	0.935921	0.281524	0.091268
861	C	0.75239	0.096856	0.337195
862	C	0.753471	0.113191	0.296466
863	C	0.75352	0.143385	0.296536
864	C	0.752559	0.158658	0.004
865	C	0.750239	0.141778	0.04494
866	H	0.758473	0.156169	0.266783
867	H	0.758411	0.105396	0.266673
868	C	0.750352	0.111565	0.044596
869	H	0.753038	0.102423	0.074739
870	O	0.754128	0.156874	0.085636
871	H	0.733579	0.157258	0.091273
872	C	0.91846	0.158635	0.337209
873	C	0.901999	0.143326	0.29655
874	C	0.871799	0.113177	0.296724
875	C	0.856587	0.096942	0.00425
876	C	0.873645	0.111525	0.045053
877	H	0.858889	0.105468	0.267055
878	H	0.909583	0.156121	0.266782
879	C	0.903881	0.141819	0.044619
880	H	0.913083	0.153693	0.074714
881	O	0.858619	0.100359	0.085793
882	H	0.858243	0.079432	0.091439
883	C	0.527143	0.265104	0.672061
884	C	0.546368	0.300535	0.671845
885	C	0.581367	0.318552	0.671322
886	C	0.598623	0.300886	0.671636
887	C	0.581409	0.265969	0.337969
888	C	0.546411	0.248944	0.338569
889	H	0.535297	0.314524	0.67173
890	O	0.632411	0.31779	0.671879
891	C	0.991227	0.247125	0.672057
892	C	0.971966	0.263292	0.338512
893	C	0.936967	0.246268	0.337938
894	C	0.919749	0.211352	0.671565
895	C	0.937	0.193681	0.671308
896	C	0.972	0.211694	0.671885
897	O	0.885962	0.194457	0.671723
898	H	0.983071	0.197705	0.671804
899	H	0.638918	0.321084	0.370515
900	H	0.879408	0.191126	0.370343
901	H	0.535372	0.223885	0.338573
902	H	0.983004	0.288348	0.338475
903	C	0.750161	0.265052	0.672
904	C	0.71473	0.248845	0.671828
905	C	0.696709	0.265823	0.671356
906	C	0.714375	0.300745	0.671663
907	C	0.749291	0.318446	0.338009
908	C	0.766321	0.300478	0.338485
909	H	0.700743	0.223783	0.671683
910	O	0.697472	0.31763	0.671804
911	C	0.768147	0.24712	0.671993
912	C	0.751988	0.211693	0.338502
913	C	0.769017	0.193725	0.337962
914	C	0.803936	0.21143	0.671605
915	C	0.8216	0.246352	0.671325
916	C	0.803579	0.263331	0.671791
917	O	0.820839	0.194545	0.67176
918	H	0.817565	0.288392	0.671663
919	H	0.694141	0.320861	0.370421
920	H	0.824151	0.191302	0.37038
921	H	0.79138	0.314502	0.338424
922	H	0.72693	0.19767	0.338465
923	C	0.750195	0.488175	0.67201
924	C	0.766407	0.468957	0.671696
925	C	0.749428	0.433958	0.671295
926	C	0.714508	0.416698	0.671592
927	C	0.696802	0.433909	0.337989
928	C	0.714768	0.468907	0.338623
929	H	0.791466	0.480031	0.671423
930	O	0.697628	0.382909	0.671723
931	C	0.768128	0.024093	0.672024
932	C	0.803554	0.043357	0.33861
933	C	0.821526	0.078355	0.338077
934	C	0.803826	0.09557	0.671781
935	C	0.768903	0.078317	0.671396
936	C	0.751921	0.043316	0.671767
937	O	0.820713	0.129357	0.67202
938	H	0.726859	0.032242	0.671497
939	H	0.694317	0.376342	0.37034
940	H	0.823992	0.135869	0.370657
941	H	0.700746	0.479942	0.338741
942	H	0.817575	0.032321	0.338664
943	C	0.661653	0.249307	0.670492
944	C	0.646382	0.250422	0.629797
945	C	0.616264	0.250538	0.629986
946	C	0.6	0.2495	0.337493
947	C	0.614565	0.247021	0.378316
948	H	0.608561	0.255694	0.600274
949	H	0.659189	0.255612	0.600041
950	C	0.644906	0.247166	0.377925
951	H	0.656755	0.249802	0.408035
952	O	0.603476	0.250971	0.419068
953	H	0.582458	0.230514	0.424696
954	C	0.765939	0.415427	0.670259
955	C	0.76498	0.399042	0.629665
956	C	0.76492	0.368843	0.629875
957	C	0.765736	0.353493	0.337352
958	C	0.767991	0.370484	0.378185
959	H	0.760031	0.356062	0.600129
960	H	0.760078	0.406798	0.599815
961	C	0.767917	0.400721	0.377726
962	H	0.765115	0.409822	0.407836
963	O	0.76393	0.355437	0.418954
964	H	0.784399	0.354937	0.42476
965	C	0.599898	0.353597	0.670526
966	C	0.616339	0.368895	0.629851
967	C	0.646519	0.399059	0.630003
968	C	0.661739	0.415311	0.337513
969	C	0.644699	0.400728	0.37833
970	H	0.659422	0.406766	0.600324
971	H	0.608759	0.356082	0.600098
972	C	0.614441	0.370447	0.377928
973	H	0.605339	0.358572	0.408049
974	O	0.659751	0.411904	0.419051
975	H	0.660069	0.432796	0.424744
976	C	0.856634	0.262847	0.670472
977	C	0.872001	0.261813	0.629797
978	C	0.902187	0.26184	0.629834
979	C	0.918377	0.262743	0.337299
980	C	0.903816	0.265089	0.378208
981	H	0.909912	0.256764	0.600085
982	H	0.859232	0.256801	0.600027
983	C	0.873478	0.264951	0.377834
984	H	0.861605	0.262194	0.407954
985	O	0.914896	0.261084	0.418944
986	H	0.935921	0.281524	0.424602
987	C	0.75239	0.096856	0.670529
988	C	0.753471	0.113191	0.6298
989	C	0.75352	0.143385	0.629871
990	C	0.752559	0.158658	0.337331
991	C	0.750239	0.141778	0.378276
992	H	0.758473	0.156169	0.600115
993	H	0.758411	0.105396	0.600007
994	C	0.750352	0.111565	0.377931
995	H	0.753038	0.102423	0.408072
996	O	0.754128	0.156874	0.418971
997	H	0.733579	0.157258	0.424605
998	C	0.91846	0.158635	0.670542
999	C	0.901999	0.143326	0.629885
1000	C	0.871799	0.113177	0.630057
1001	C	0.856587	0.096942	0.337581
1002	C	0.873645	0.111525	0.378387
1003	H	0.858889	0.105468	0.600388
1004	H	0.909583	0.156121	0.600115
1005	C	0.903881	0.141819	0.377952
1006	H	0.913083	0.153693	0.408049
1007	O	0.858619	0.100359	0.419126
1008	H	0.858243	0.079432	0.424774
1009	C	0.527143	0.265104	0.005394
1010	C	0.546368	0.300535	0.005178
1011	C	0.581367	0.318552	0.004658
1012	C	0.598623	0.300886	0.004972
1013	C	0.581409	0.265969	0.671302
1014	C	0.546411	0.248944	0.671906
1015	H	0.535297	0.314524	0.005063
1016	O	0.632411	0.31779	0.005211
1017	C	0.991227	0.247125	0.00539
1018	C	0.971966	0.263292	0.671845
1019	C	0.936967	0.246268	0.671275
1020	C	0.919749	0.211352	0.004901
1021	C	0.937	0.193681	0.004641
1022	C	0.972	0.211694	0.005218
1023	O	0.885962	0.194457	0.005056
1024	H	0.983071	0.197705	0.005137
1025	H	0.638918	0.321084	0.703848
1026	H	0.879408	0.191126	0.703676
1027	H	0.535372	0.223885	0.671909
1028	H	0.983004	0.288348	0.671808
1029	C	0.750161	0.265052	0.005333
1030	C	0.71473	0.248845	0.005161
1031	C	0.696709	0.265823	0.004688
1032	C	0.714375	0.300745	0.004995
1033	C	0.749291	0.318446	0.671342
1034	C	0.766321	0.300478	0.671818
1035	H	0.700743	0.223783	0.005019
1036	O	0.697472	0.31763	0.005137
1037	C	0.768147	0.24712	0.005326
1038	C	0.751988	0.211693	0.671838
1039	C	0.769017	0.193725	0.671295
1040	C	0.803936	0.21143	0.004941
1041	C	0.8216	0.246352	0.004658
1042	C	0.803579	0.263331	0.005124
1043	O	0.820839	0.194545	0.005093
1044	H	0.817565	0.288392	0.004999
1045	H	0.694141	0.320861	0.703754
1046	H	0.824151	0.191302	0.703713
1047	H	0.79138	0.314502	0.67176
1048	H	0.72693	0.19767	0.671798
1049	C	0.750195	0.488175	0.005343
1050	C	0.766407	0.468957	0.005029
1051	C	0.749428	0.433958	0.004631
1052	C	0.714508	0.416698	0.004925
1053	C	0.696802	0.433909	0.671322
1054	C	0.714768	0.468907	0.671956
1055	H	0.791466	0.480031	0.004756
1056	O	0.697628	0.382909	0.005056
1057	C	0.768128	0.024093	0.00536
1058	C	0.803554	0.043357	0.671943
1059	C	0.821526	0.078355	0.671413
1060	C	0.803826	0.09557	0.005117
1061	C	0.768903	0.078317	0.004732
1062	C	0.751921	0.043316	0.0051
1063	O	0.820713	0.129357	0.005353
1064	H	0.726859	0.032242	0.00483
1065	H	0.694317	0.376342	0.703673
1066	H	0.823992	0.135869	0.70399
1067	H	0.700746	0.479942	0.672074
1068	H	0.817575	0.032321	0.671997
1069	C	0.661653	0.249307	0.003825
1070	C	0.646382	0.250422	0.96313
1071	C	0.616264	0.250538	0.963322
1072	C	0.6	0.2495	0.670826
1073	C	0.614565	0.247021	0.711649
1074	H	0.608561	0.255694	0.933607
1075	H	0.659189	0.255612	0.933374
1076	C	0.644906	0.247166	0.711258
1077	H	0.656755	0.249802	0.741368
1078	O	0.603476	0.250971	0.752401
1079	H	0.582458	0.230514	0.758033
1080	C	0.765939	0.415427	0.003592
1081	C	0.76498	0.399042	0.962998
1082	C	0.76492	0.368843	0.963207
1083	C	0.765736	0.353493	0.670684
1084	C	0.767991	0.370484	0.711517
1085	H	0.760031	0.356062	0.933461
1086	H	0.760078	0.406798	0.933148
1087	C	0.767917	0.400721	0.711062
1088	H	0.765115	0.409822	0.741172
1089	O	0.76393	0.355437	0.752286
1090	H	0.784399	0.354937	0.758093
1091	C	0.599898	0.353597	0.003862
1092	C	0.616339	0.368895	0.963187
1093	C	0.646519	0.399059	0.963336
1094	C	0.661739	0.415311	0.670846
1095	C	0.644699	0.400728	0.711662
1096	H	0.659422	0.406766	0.933657
1097	H	0.608759	0.356082	0.933431
1098	C	0.614441	0.370447	0.711264
1099	H	0.605339	0.358572	0.741381
1100	O	0.659751	0.411904	0.752384
1101	H	0.660069	0.432796	0.758076
1102	C	0.856634	0.262847	0.003808
1103	C	0.872001	0.261813	0.96313
1104	C	0.902187	0.26184	0.963167
1105	C	0.918377	0.262743	0.670634
1106	C	0.903816	0.265089	0.711541
1107	H	0.909912	0.256764	0.933418
1108	H	0.859232	0.256801	0.93336
1109	C	0.873478	0.264951	0.71117
1110	H	0.861605	0.262194	0.74129
1111	O	0.914896	0.261084	0.752276
1112	H	0.935921	0.281524	0.757935
1113	C	0.75239	0.096856	0.003862
1114	C	0.753471	0.113191	0.963133
1115	C	0.75352	0.143385	0.963204
1116	C	0.752559	0.158658	0.670664
1117	C	0.750239	0.141778	0.711608
1118	H	0.758473	0.156169	0.933451
1119	H	0.758411	0.105396	0.93334
1120	C	0.750352	0.111565	0.711264
1121	H	0.753038	0.102423	0.741405
1122	O	0.754128	0.156874	0.752303
1123	H	0.733579	0.157258	0.757941
1124	C	0.91846	0.158635	0.003879
1125	C	0.901999	0.143326	0.963217
1126	C	0.871799	0.113177	0.963393
1127	C	0.856587	0.096942	0.670917
1128	C	0.873645	0.111525	0.71172
1129	H	0.858889	0.105468	0.933721
1130	H	0.909583	0.156121	0.933451
1131	C	0.903881	0.141819	0.711288
1132	H	0.913083	0.153693	0.741381
1133	O	0.858619	0.100359	0.752462
1134	H	0.858243	0.079432	0.758107
1135	C	0.527144	0.765105	0.338725
1136	C	0.546369	0.800536	0.338512
1137	C	0.581367	0.818553	0.337989
1138	C	0.598623	0.800887	0.338303
1139	C	0.581408	0.765968	0.004634
1140	C	0.54641	0.748943	0.005238
1141	H	0.535296	0.814523	0.338397
1142	O	0.632408	0.817789	0.338542
1143	C	0.991227	0.747125	0.338721
1144	C	0.971966	0.76329	0.005181
1145	C	0.936967	0.746267	0.004607
1146	C	0.919748	0.711351	0.338232
1147	C	0.937	0.69368	0.337976
1148	C	0.972	0.711694	0.338549
1149	O	0.885959	0.694456	0.338387
1150	H	0.983071	0.697705	0.338472
1151	H	0.638919	0.821085	0.037182
1152	H	0.879408	0.691126	0.037009
1153	H	0.535371	0.723884	0.005242
1154	H	0.983003	0.788347	0.005144
1155	C	0.75016	0.765051	0.338664
1156	C	0.714728	0.748844	0.338492
1157	C	0.696706	0.765822	0.338023
1158	C	0.714373	0.800744	0.338326
1159	C	0.74929	0.818445	0.004678
1160	C	0.766322	0.800479	0.005151
1161	H	0.700743	0.723782	0.33835
1162	O	0.69747	0.817631	0.338468
1163	C	0.768147	0.74712	0.33866
1164	C	0.751987	0.711692	0.005171
1165	C	0.769017	0.693724	0.004628
1166	C	0.803933	0.71143	0.338272
1167	C	0.821598	0.746351	0.337989
1168	C	0.803578	0.76333	0.338458
1169	O	0.820837	0.694545	0.338424
1170	H	0.817565	0.788391	0.33833
1171	H	0.694138	0.82086	0.037087
1172	H	0.824151	0.691301	0.037045
1173	H	0.791377	0.814501	0.005093
1174	H	0.72693	0.69767	0.005134
1175	C	0.750195	0.988174	0.338677
1176	C	0.766404	0.968955	0.338364
1177	C	0.749428	0.933957	0.337962
1178	C	0.714505	0.916697	0.338256
1179	C	0.696799	0.933908	0.004658
1180	C	0.714767	0.968906	0.005289
1181	H	0.791465	0.98003	0.33809
1182	O	0.697626	0.882908	0.338391
1183	C	0.768126	0.524093	0.338691
1184	C	0.803553	0.543357	0.005275
1185	C	0.821526	0.578355	0.004746
1186	C	0.803823	0.595568	0.338448
1187	C	0.768902	0.578315	0.338063
1188	C	0.751919	0.543317	0.338431
1189	O	0.82071	0.629355	0.338684
1190	H	0.72686	0.532243	0.338161
1191	H	0.694316	0.876341	0.037006
1192	H	0.823992	0.635868	0.037322
1193	H	0.700744	0.979941	0.005407
1194	H	0.817575	0.532322	0.005329
1195	C	0.661652	0.749306	0.337158
1196	C	0.646382	0.750421	0.296463
1197	C	0.616261	0.750537	0.296654
1198	C	0.600001	0.749501	0.004162
1199	C	0.614565	0.747021	0.044981
1200	H	0.608562	0.755695	0.26694
1201	H	0.659186	0.755611	0.266707
1202	C	0.644904	0.747165	0.04459
1203	H	0.656754	0.7498	0.0747
1204	O	0.603476	0.75097	0.085734
1205	H	0.582457	0.730513	0.091363
1206	C	0.76594	0.915428	0.336925
1207	C	0.764979	0.899041	0.29633
1208	C	0.764919	0.868844	0.29654
1209	C	0.765735	0.853492	0.00402
1210	C	0.767991	0.870483	0.044849
1211	H	0.760028	0.856061	0.266793
1212	H	0.760076	0.906797	0.26648
1213	C	0.767915	0.900719	0.044393
1214	H	0.765114	0.909821	0.074504
1215	O	0.763931	0.855438	0.085619
1216	H	0.7844	0.854939	0.091426
1217	C	0.599898	0.853596	0.337193
1218	C	0.616337	0.868893	0.296518
1219	C	0.646518	0.899058	0.296668
1220	C	0.66174	0.915312	0.004179
1221	C	0.644698	0.900727	0.044994
1222	H	0.65942	0.906765	0.26699
1223	H	0.608758	0.856081	0.266763
1224	C	0.61444	0.870446	0.044596
1225	H	0.605338	0.858571	0.074714
1226	O	0.65975	0.911903	0.085718
1227	H	0.660067	0.932795	0.091409
1228	C	0.856635	0.762848	0.337138
1229	C	0.872002	0.761814	0.296463
1230	C	0.902188	0.761842	0.2965
1231	C	0.918374	0.762742	0.003966
1232	C	0.903815	0.765088	0.044875
1233	H	0.909912	0.756763	0.266751
1234	H	0.859232	0.7568	0.266693
1235	C	0.873477	0.76495	0.044501
1236	H	0.861606	0.762195	0.074621
1237	O	0.914894	0.761083	0.08561
1238	H	0.935922	0.781525	0.091268
1239	C	0.752388	0.596857	0.337195
1240	C	0.753471	0.61319	0.296466
1241	C	0.753517	0.643384	0.296536
1242	C	0.752556	0.658657	0.004
1243	C	0.750238	0.641777	0.04494
1244	H	0.758473	0.656169	0.266783
1245	H	0.75841	0.605394	0.266673
1246	C	0.750353	0.611565	0.044596
1247	H	0.753038	0.602422	0.074739
1248	O	0.754127	0.656874	0.085636
1249	H	0.733579	0.657257	0.091273
1250	C	0.91846	0.658634	0.337209
1251	C	0.901998	0.643325	0.29655
1252	C	0.871799	0.613178	0.296724
1253	C	0.856584	0.596941	0.00425
1254	C	0.873645	0.611526	0.045053
1255	H	0.858887	0.605468	0.267055
1256	H	0.909582	0.65612	0.266782
1257	C	0.903881	0.641819	0.044619
1258	H	0.913083	0.653692	0.074714
1259	O	0.858618	0.600358	0.085793
1260	H	0.858242	0.57943	0.091439
1261	C	0.527144	0.765105	0.672061
1262	C	0.546369	0.800536	0.671845
1263	C	0.581367	0.818553	0.671322
1264	C	0.598623	0.800887	0.671636
1265	C	0.581408	0.765968	0.337969
1266	C	0.54641	0.748943	0.338569
1267	H	0.535296	0.814523	0.67173
1268	O	0.632408	0.817789	0.671879
1269	C	0.991227	0.747125	0.672057
1270	C	0.971966	0.76329	0.338512
1271	C	0.936967	0.746267	0.337938
1272	C	0.919748	0.711351	0.671565
1273	C	0.937	0.69368	0.671308
1274	C	0.972	0.711694	0.671885
1275	O	0.885959	0.694456	0.671723
1276	H	0.983071	0.697705	0.671804
1277	H	0.638919	0.821085	0.370515
1278	H	0.879408	0.691126	0.370343
1279	H	0.535371	0.723884	0.338573
1280	H	0.983003	0.788347	0.338475
1281	C	0.75016	0.765051	0.672
1282	C	0.714728	0.748844	0.671825
1283	C	0.696706	0.765822	0.671356
1284	C	0.714373	0.800744	0.671663
1285	C	0.74929	0.818445	0.338009
1286	C	0.766322	0.800479	0.338485
1287	H	0.700743	0.723782	0.671683
1288	O	0.69747	0.817631	0.671804
1289	C	0.768147	0.74712	0.671993
1290	C	0.751987	0.711692	0.338502
1291	C	0.769017	0.693724	0.337962
1292	C	0.803933	0.71143	0.671605
1293	C	0.821598	0.746351	0.671325
1294	C	0.803578	0.76333	0.671791
1295	O	0.820837	0.694545	0.67176
1296	H	0.817565	0.788391	0.671663
1297	H	0.694138	0.82086	0.370421
1298	H	0.824151	0.691301	0.37038
1299	H	0.791377	0.814501	0.338424
1300	H	0.72693	0.69767	0.338465
1301	C	0.750195	0.988174	0.67201
1302	C	0.766404	0.968955	0.671696
1303	C	0.749428	0.933957	0.671295
1304	C	0.714505	0.916697	0.671592
1305	C	0.696799	0.933908	0.337989
1306	C	0.714767	0.968906	0.338623
1307	H	0.791465	0.98003	0.671423
1308	O	0.697626	0.882908	0.671723
1309	C	0.768126	0.524093	0.672024
1310	C	0.803553	0.543357	0.33861
1311	C	0.821526	0.578355	0.338077
1312	C	0.803823	0.595568	0.671781
1313	C	0.768902	0.578315	0.671396
1314	C	0.751919	0.543317	0.671767
1315	O	0.82071	0.629355	0.67202
1316	H	0.72686	0.532243	0.671494
1317	H	0.694316	0.876341	0.37034
1318	H	0.823992	0.635868	0.370657
1319	H	0.700744	0.979941	0.338741
1320	H	0.817575	0.532322	0.338664
1321	C	0.661652	0.749306	0.670492
1322	C	0.646382	0.750421	0.629797
1323	C	0.616261	0.750537	0.629986
1324	C	0.600001	0.749501	0.337493
1325	C	0.614565	0.747021	0.378316
1326	H	0.608562	0.755695	0.600274
1327	H	0.659186	0.755611	0.600041
1328	C	0.644904	0.747165	0.377925
1329	H	0.656754	0.7498	0.408035
1330	O	0.603476	0.75097	0.419068
1331	H	0.582457	0.730513	0.424696
1332	C	0.76594	0.915428	0.670259
1333	C	0.764979	0.899041	0.629665
1334	C	0.764919	0.868844	0.629875
1335	C	0.765735	0.853492	0.337352
1336	C	0.767991	0.870483	0.378185
1337	H	0.760028	0.856061	0.600129
1338	H	0.760076	0.906797	0.599815
1339	C	0.767915	0.900719	0.377726
1340	H	0.765114	0.909821	0.407836
1341	O	0.763931	0.855438	0.418954
1342	H	0.7844	0.854939	0.42476
1343	C	0.599898	0.853596	0.670526
1344	C	0.616337	0.868893	0.629851
1345	C	0.646518	0.899058	0.630003
1346	C	0.66174	0.915312	0.337513
1347	C	0.644698	0.900727	0.37833
1348	H	0.65942	0.906765	0.600324
1349	H	0.608758	0.856081	0.600098
1350	C	0.61444	0.870446	0.377928
1351	H	0.605338	0.858571	0.408049
1352	O	0.65975	0.911903	0.419051
1353	H	0.660067	0.932795	0.424744
1354	C	0.856635	0.762848	0.670472
1355	C	0.872002	0.761814	0.629797
1356	C	0.902188	0.761842	0.629834
1357	C	0.918374	0.762742	0.337299
1358	C	0.903815	0.765088	0.378208
1359	H	0.909912	0.756763	0.600085
1360	H	0.859232	0.7568	0.600027
1361	C	0.873477	0.76495	0.377834
1362	H	0.861606	0.762195	0.407954
1363	O	0.914894	0.761083	0.418944
1364	H	0.935922	0.781525	0.424602
1365	C	0.752388	0.596857	0.670529
1366	C	0.753471	0.61319	0.6298
1367	C	0.753517	0.643384	0.629871
1368	C	0.752556	0.658657	0.337331
1369	C	0.750238	0.641777	0.378276
1370	H	0.758473	0.656169	0.600115
1371	H	0.75841	0.605394	0.600007
1372	C	0.750353	0.611565	0.377931
1373	H	0.753038	0.602422	0.408072
1374	O	0.754127	0.656874	0.418971
1375	H	0.733579	0.657257	0.424605
1376	C	0.91846	0.658634	0.670542
1377	C	0.901998	0.643325	0.629885
1378	C	0.871799	0.613178	0.630057
1379	C	0.856584	0.596941	0.337581
1380	C	0.873645	0.611526	0.378387
1381	H	0.858887	0.605468	0.600388
1382	H	0.909582	0.65612	0.600115
1383	C	0.903881	0.641819	0.377952
1384	H	0.913083	0.653692	0.408049
1385	O	0.858618	0.600358	0.419126
1386	H	0.858242	0.57943	0.424774
1387	C	0.527144	0.765105	0.005394
1388	C	0.546369	0.800536	0.005178
1389	C	0.581367	0.818553	0.004658
1390	C	0.598623	0.800887	0.004972
1391	C	0.581408	0.765968	0.671302
1392	C	0.54641	0.748943	0.671906
1393	H	0.535296	0.814523	0.005063
1394	O	0.632408	0.817789	0.005211
1395	C	0.991227	0.747125	0.00539
1396	C	0.971966	0.76329	0.671845
1397	C	0.936967	0.746267	0.671275
1398	C	0.919748	0.711351	0.004901
1399	C	0.937	0.69368	0.004641
1400	C	0.972	0.711694	0.005218
1401	O	0.885959	0.694456	0.005056
1402	H	0.983071	0.697705	0.005137
1403	H	0.638919	0.821085	0.703848
1404	H	0.879408	0.691126	0.703676
1405	H	0.535371	0.723884	0.671909
1406	H	0.983003	0.788347	0.671808
1407	C	0.75016	0.765051	0.005333
1408	C	0.714728	0.748844	0.005161
1409	C	0.696706	0.765822	0.004688
1410	C	0.714373	0.800744	0.004995
1411	C	0.74929	0.818445	0.671342
1412	C	0.766322	0.800479	0.671818
1413	H	0.700743	0.723782	0.005019
1414	O	0.69747	0.817631	0.005137
1415	C	0.768147	0.74712	0.005326
1416	C	0.751987	0.711692	0.671838
1417	C	0.769017	0.693724	0.671295
1418	C	0.803933	0.71143	0.004941
1419	C	0.821598	0.746351	0.004658
1420	C	0.803578	0.76333	0.005124
1421	O	0.820837	0.694545	0.005093
1422	H	0.817565	0.788391	0.004999
1423	H	0.694138	0.82086	0.703754
1424	H	0.824151	0.691301	0.703713
1425	H	0.791377	0.814501	0.67176
1426	H	0.72693	0.69767	0.671798
1427	C	0.750195	0.988174	0.005343
1428	C	0.766404	0.968955	0.005029
1429	C	0.749428	0.933957	0.004631
1430	C	0.714505	0.916697	0.004925
1431	C	0.696799	0.933908	0.671322
1432	C	0.714767	0.968906	0.671956
1433	H	0.791465	0.98003	0.004756
1434	O	0.697626	0.882908	0.005056
1435	C	0.768126	0.524093	0.00536
1436	C	0.803553	0.543357	0.671943
1437	C	0.821526	0.578355	0.671413
1438	C	0.803823	0.595568	0.005117
1439	C	0.768902	0.578315	0.004732
1440	C	0.751919	0.543317	0.0051
1441	O	0.82071	0.629355	0.005353
1442	H	0.72686	0.532243	0.00483
1443	H	0.694316	0.876341	0.703673
1444	H	0.823992	0.635868	0.70399
1445	H	0.700744	0.979941	0.672074
1446	H	0.817575	0.532322	0.671997
1447	C	0.661652	0.749306	0.003825
1448	C	0.646382	0.750421	0.96313
1449	C	0.616261	0.750537	0.963322
1450	C	0.600001	0.749501	0.670826
1451	C	0.614565	0.747021	0.711649
1452	H	0.608562	0.755695	0.933607
1453	H	0.659186	0.755611	0.933374
1454	C	0.644904	0.747165	0.711258
1455	H	0.656754	0.7498	0.741368
1456	O	0.603476	0.75097	0.752401
1457	H	0.582457	0.730513	0.758033
1458	C	0.76594	0.915428	0.003592
1459	C	0.764979	0.899041	0.962998
1460	C	0.764919	0.868844	0.963207
1461	C	0.765735	0.853492	0.670684
1462	C	0.767991	0.870483	0.711517
1463	H	0.760028	0.856061	0.933461
1464	H	0.760076	0.906797	0.933148
1465	C	0.767915	0.900719	0.711062
1466	H	0.765114	0.909821	0.741172
1467	O	0.763931	0.855438	0.752286
1468	H	0.7844	0.854939	0.758093
1469	C	0.599898	0.853596	0.003862
1470	C	0.616337	0.868893	0.963187
1471	C	0.646518	0.899058	0.963336
1472	C	0.66174	0.915312	0.670846
1473	C	0.644698	0.900727	0.711662
1474	H	0.65942	0.906765	0.933657
1475	H	0.608758	0.856081	0.933431
1476	C	0.61444	0.870446	0.711264
1477	H	0.605338	0.858571	0.741381
1478	O	0.65975	0.911903	0.752384
1479	H	0.660067	0.932795	0.758076
1480	C	0.856635	0.762848	0.003808
1481	C	0.872002	0.761814	0.96313
1482	C	0.902188	0.761842	0.963167
1483	C	0.918374	0.762742	0.670634
1484	C	0.903815	0.765088	0.711541
1485	H	0.909912	0.756763	0.933418
1486	H	0.859232	0.7568	0.93336
1487	C	0.873477	0.76495	0.71117
1488	H	0.861606	0.762195	0.74129
1489	O	0.914894	0.761083	0.752276
1490	H	0.935922	0.781525	0.757935
1491	C	0.752388	0.596857	0.003862
1492	C	0.753471	0.61319	0.963133
1493	C	0.753517	0.643384	0.963204
1494	C	0.752556	0.658657	0.670664
1495	C	0.750238	0.641777	0.711608
1496	H	0.758473	0.656169	0.933451
1497	H	0.75841	0.605394	0.93334
1498	C	0.750353	0.611565	0.711264
1499	H	0.753038	0.602422	0.741405
1500	O	0.754127	0.656874	0.752303
1501	H	0.733579	0.657257	0.757941
1502	C	0.91846	0.658634	0.003879
1503	C	0.901998	0.643325	0.963217
1504	C	0.871799	0.613178	0.963393
1505	C	0.856584	0.596941	0.670917
1506	C	0.873645	0.611526	0.71172
1507	H	0.858887	0.605468	0.933721
1508	H	0.909582	0.65612	0.933451
1509	C	0.903881	0.641819	0.711288
1510	H	0.913083	0.653692	0.741381
1511	O	0.858618	0.600358	0.752462
1512	H	0.858242	0.57943	0.758107
