data_C468H288N96_2018-02-15_10:43:57
#******************************************
#
# CIF file created by Zeo++
# Zeo++ is an open source package to
# analyze microporous materials
#
#*******************************************

_cell_length_a		34.8479   
_cell_length_b		34.8478   
_cell_length_c		29.303   
_cell_angle_alpha		90   
_cell_angle_beta		90   
_cell_angle_gamma		89.9979   

_symmetry_space_group_name_H-M		'P1'
_symmetry_Int_Tables_number		1
_symmetry_cell_setting		Monoclinic

loop_
_symmetry_equiv_pos_as_xyz
'+x,+y,+z'

loop_
_atom_site_label
_atom_site_type_symbol
_atom_site_fract_x
_atom_site_fract_y
_atom_site_fract_z
1	C	0.01277	0.437577	0.023495
2	C	0.013504	0.086067	0.018726
3	C	0.47461	0.512629	0.053406
4	C	0.475218	0.513071	0.101866
5	C	0.047726	0.014285	0.102991
6	C	0.04942	0.012701	0.054652
7	C	0.081699	0.016857	0.128975
8	C	0.117614	0.017559	0.107737
9	C	0.121238	0.014277	0.059849
10	C	0.086734	0.012746	0.033974
11	C	0.437738	0.512571	0.031574
12	C	0.402939	0.512821	0.056912
13	C	0.405157	0.512907	0.10482
14	C	0.440665	0.513094	0.127
15	H	0.380736	0.513016	0.124334
16	H	0.44105	0.513395	0.161945
17	H	0.080564	0.018882	0.163804
18	H	0.141324	0.020685	0.127974
19	H	0.01291	0.436472	0.058361
20	H	0.013112	0.088575	0.053491
21	C	0.012337	0.011967	0.026896
22	C	0.011182	0.513903	0.128529
23	H	0.010425	0.039612	0.14988
24	H	0.011445	0.488687	0.150814
25	N	0.156482	0.015865	0.040362
26	N	0.01313	0.367294	0.016145
27	N	0.367051	0.512683	0.041158
28	C	0.51231	0.301382	0.031991
29	N	0.509221	0.272725	0.063598
30	N	0.005646	0.236058	0.053327
31	C	0.514105	0.339895	0.045492
32	H	0.515439	0.346524	0.078387
33	C	0.303644	0.512207	0.015965
34	C	0.224951	0.506252	0.038964
35	N	0.254069	0.5047	0.069916
36	N	0.290461	0.507561	0.059368
37	C	0.187911	0.500642	0.055623
38	H	0.186291	0.485341	0.08427
39	C	0.012771	0.937579	0.023496
40	C	0.013503	0.586068	0.018723
41	C	0.474608	0.012627	0.053407
42	C	0.47522	0.01307	0.101867
43	C	0.047726	0.514287	0.10299
44	C	0.04942	0.5127	0.05465
45	C	0.081698	0.516858	0.128973
46	C	0.117614	0.517559	0.107736
47	C	0.121238	0.514279	0.059847
48	C	0.086733	0.512746	0.033972
49	C	0.437739	0.01257	0.031575
50	C	0.40294	0.012821	0.056913
51	C	0.405158	0.012906	0.104821
52	C	0.440666	0.013094	0.127001
53	H	0.380737	0.013017	0.124335
54	H	0.441051	0.013396	0.161946
55	H	0.080564	0.518884	0.163802
56	H	0.141323	0.520687	0.127973
57	H	0.01291	0.936471	0.058361
58	H	0.013111	0.588576	0.053489
59	C	0.012336	0.511969	0.026895
60	C	0.011184	0.013904	0.12853
61	H	0.010424	0.539612	0.149879
62	H	0.011443	0.988687	0.150815
63	N	0.156482	0.515866	0.04036
64	N	0.01313	0.867293	0.016145
65	N	0.367049	0.012683	0.041159
66	C	0.512309	0.801381	0.031988
67	N	0.509225	0.772725	0.063594
68	N	0.00565	0.736057	0.053323
69	C	0.514104	0.839894	0.04549
70	H	0.515444	0.846523	0.078385
71	C	0.303642	0.012206	0.015967
72	C	0.224952	0.006255	0.038965
73	N	0.25407	0.004702	0.069918
74	N	0.290463	0.007563	0.059369
75	C	0.187912	0.000645	0.055625
76	H	0.186292	0.985341	0.084272
77	C	0.51277	0.437577	0.023495
78	C	0.513503	0.086067	0.018726
79	C	0.974609	0.512629	0.053406
80	C	0.97522	0.513071	0.101866
81	C	0.547726	0.014285	0.102991
82	C	0.549419	0.012701	0.054652
83	C	0.581699	0.016857	0.128975
84	C	0.617615	0.017559	0.107737
85	C	0.621237	0.014277	0.059849
86	C	0.586733	0.012746	0.033974
87	C	0.937738	0.512571	0.031574
88	C	0.902938	0.512821	0.056912
89	C	0.905159	0.512907	0.10482
90	C	0.940667	0.513094	0.127
91	H	0.880738	0.513016	0.124334
92	H	0.941052	0.513395	0.161945
93	H	0.580563	0.018882	0.163804
94	H	0.641324	0.020685	0.127974
95	H	0.512911	0.436472	0.058361
96	H	0.513113	0.088575	0.053491
97	C	0.512338	0.011967	0.026896
98	C	0.511183	0.513903	0.128529
99	H	0.510423	0.039612	0.14988
100	H	0.511445	0.488687	0.150814
101	N	0.656482	0.015865	0.040362
102	N	0.513129	0.367294	0.016145
103	N	0.86705	0.512683	0.041158
104	C	0.012309	0.301382	0.031991
105	N	0.00922	0.272725	0.063598
106	N	0.505647	0.236058	0.053327
107	C	0.014104	0.339895	0.045492
108	H	0.01544	0.346524	0.078387
109	C	0.803643	0.512207	0.015965
110	C	0.72495	0.506252	0.038964
111	N	0.754068	0.5047	0.069916
112	N	0.79046	0.507561	0.059368
113	C	0.687912	0.500642	0.055623
114	H	0.686291	0.485341	0.08427
115	C	0.512772	0.937579	0.023496
116	C	0.513502	0.586068	0.018723
117	C	0.97461	0.012627	0.053407
118	C	0.975222	0.01307	0.101867
119	C	0.547725	0.514287	0.10299
120	C	0.549421	0.5127	0.05465
121	C	0.581698	0.516858	0.128973
122	C	0.617614	0.517559	0.107736
123	C	0.621239	0.514279	0.059847
124	C	0.586735	0.512746	0.033972
125	C	0.937739	0.01257	0.031575
126	C	0.902939	0.012821	0.056913
127	C	0.905157	0.012906	0.104821
128	C	0.940666	0.013094	0.127001
129	H	0.880739	0.013017	0.124335
130	H	0.94105	0.013396	0.161946
131	H	0.580565	0.518884	0.163802
132	H	0.641323	0.520687	0.127973
133	H	0.51291	0.936471	0.058361
134	H	0.513112	0.588576	0.053489
135	C	0.512337	0.511969	0.026895
136	C	0.511184	0.013904	0.12853
137	H	0.510422	0.539612	0.149879
138	H	0.511444	0.988687	0.150815
139	N	0.656481	0.515866	0.04036
140	N	0.51313	0.867293	0.016145
141	N	0.867051	0.012683	0.041159
142	C	0.012309	0.801381	0.031988
143	N	0.009224	0.772725	0.063594
144	N	0.505651	0.736057	0.053323
145	C	0.014105	0.839894	0.04549
146	H	0.015443	0.846523	0.078385
147	C	0.803644	0.012206	0.015967
148	C	0.724952	0.006255	0.038965
149	N	0.75407	0.004702	0.069918
150	N	0.790462	0.007563	0.059369
151	C	0.687911	0.000645	0.055625
152	H	0.686293	0.985341	0.084272
153	C	0.013782	0.046439	0.283476
154	C	0.01249	0.474027	0.28578
155	C	0.012346	0.403942	0.28422
156	C	0.012216	0.439132	0.261317
157	C	0.015896	0.080148	0.256943
158	C	0.016939	0.116252	0.277665
159	H	0.012298	0.379243	0.265272
160	H	0.012135	0.439037	0.226365
161	H	0.017276	0.078703	0.222109
162	H	0.019443	0.139917	0.257188
163	C	0.013068	0.009644	0.258476
164	H	0.038543	0.508614	0.236698
165	H	0.487608	0.009672	0.236615
166	C	0.008311	0.250632	0.307954
167	C	0.512204	0.289662	0.319092
168	H	0.514167	0.309193	0.293171
169	H	0.007321	0.242843	0.274262
170	H	0.977571	0.181478	0.306523
171	C	0.275207	0.51427	0.314793
172	H	0.215502	0.512221	0.30107
173	H	0.282917	0.517421	0.281317
174	H	0.353211	0.516158	0.309409
175	C	0.013781	0.546439	0.283475
176	C	0.01249	0.974029	0.285781
177	C	0.012347	0.903944	0.284219
178	C	0.012216	0.939134	0.261317
179	C	0.015895	0.580148	0.25694
180	C	0.016938	0.616251	0.277662
181	H	0.012298	0.879245	0.265271
182	H	0.012135	0.93904	0.226365
183	H	0.017276	0.578702	0.222106
184	H	0.019443	0.639916	0.257185
185	C	0.013068	0.509644	0.258475
186	H	0.038544	0.008616	0.236699
187	H	0.48761	0.50967	0.236613
188	C	0.008307	0.750635	0.30795
189	C	0.512201	0.789665	0.319088
190	H	0.51416	0.809195	0.293168
191	H	0.007314	0.742847	0.274258
192	H	0.977573	0.681477	0.306517
193	C	0.275208	0.014271	0.314794
194	H	0.215502	0.012221	0.301071
195	H	0.282918	0.017422	0.281318
196	H	0.353212	0.016157	0.30941
197	C	0.513783	0.046439	0.283476
198	C	0.51249	0.474027	0.28578
199	C	0.512347	0.403942	0.28422
200	C	0.512216	0.439132	0.261317
201	C	0.515897	0.080148	0.256943
202	C	0.51694	0.116252	0.277665
203	H	0.512299	0.379243	0.265272
204	H	0.512136	0.439037	0.226365
205	H	0.517277	0.078703	0.222109
206	H	0.519444	0.139917	0.257188
207	C	0.513068	0.009644	0.258476
208	H	0.538542	0.508614	0.236698
209	H	0.987608	0.009672	0.236615
210	C	0.508312	0.250632	0.307954
211	C	0.012205	0.289662	0.319092
212	H	0.014167	0.309193	0.293171
213	H	0.507322	0.242843	0.274262
214	H	0.477572	0.181478	0.306523
215	C	0.775208	0.51427	0.314793
216	H	0.715503	0.512221	0.30107
217	H	0.782919	0.517421	0.281317
218	H	0.853213	0.516158	0.309409
219	C	0.513782	0.546439	0.283475
220	C	0.512489	0.974029	0.285781
221	C	0.512346	0.903944	0.284219
222	C	0.512218	0.939134	0.261317
223	C	0.515896	0.580148	0.25694
224	C	0.516939	0.616251	0.277662
225	H	0.512298	0.879245	0.265271
226	H	0.512135	0.93904	0.226365
227	H	0.517276	0.578702	0.222106
228	H	0.519443	0.639916	0.257185
229	C	0.513069	0.509644	0.258475
230	H	0.538544	0.008616	0.236699
231	H	0.987609	0.50967	0.236613
232	C	0.508308	0.750635	0.30795
233	C	0.0122	0.789665	0.319088
234	H	0.014159	0.809195	0.293168
235	H	0.507315	0.742847	0.274258
236	H	0.477574	0.681477	0.306517
237	C	0.775209	0.014271	0.314794
238	H	0.715501	0.012221	0.301071
239	H	0.782917	0.017422	0.281318
240	H	0.853211	0.016157	0.30941
241	C	0.012911	0.048625	0.331836
242	C	0.012578	0.474061	0.334254
243	C	0.012818	0.402527	0.332156
244	C	0.014681	0.120166	0.325554
245	H	0.088832	0.01171	0.33252
246	H	0.436169	0.512247	0.330077
247	N	0.017051	0.155696	0.010317
248	C	0.00492	0.222895	0.342907
249	C	0.996944	0.185098	0.331204
250	C	0.235808	0.511464	0.326252
251	C	0.343216	0.513937	0.007686
252	C	0.012911	0.048625	0.665168
253	C	0.013782	0.046439	0.616811
254	C	0.01249	0.474027	0.619114
255	C	0.012578	0.474061	0.667587
256	C	0.01277	0.437577	0.356827
257	C	0.012818	0.402527	0.665488
258	C	0.012346	0.403942	0.617551
259	C	0.012216	0.439132	0.594649
260	C	0.015896	0.080148	0.590274
261	C	0.016939	0.116252	0.610999
262	C	0.014681	0.120166	0.658888
263	C	0.013504	0.086067	0.35206
264	C	0.47461	0.512629	0.386739
265	C	0.475218	0.513071	0.435198
266	C	0.047726	0.014285	0.436324
267	C	0.04942	0.012701	0.387984
268	C	0.081699	0.016857	0.462308
269	C	0.117614	0.017559	0.441071
270	C	0.121238	0.014277	0.393182
271	C	0.086734	0.012746	0.367307
272	C	0.437738	0.512571	0.364908
273	C	0.402939	0.512821	0.390244
274	C	0.405157	0.512907	0.438153
275	C	0.440665	0.513094	0.460332
276	H	0.380736	0.513016	0.457667
277	H	0.44105	0.513395	0.495277
278	H	0.080564	0.018882	0.497137
279	H	0.141324	0.020685	0.461308
280	H	0.088832	0.01171	0.665854
281	H	0.436169	0.512247	0.66341
282	H	0.01291	0.436472	0.391694
283	H	0.012298	0.379243	0.598605
284	H	0.012135	0.439037	0.559697
285	H	0.013112	0.088575	0.386824
286	H	0.017276	0.078703	0.555442
287	H	0.019443	0.139917	0.59052
288	C	0.012337	0.011967	0.36023
289	C	0.011182	0.513903	0.461861
290	H	0.010425	0.039612	0.483214
291	H	0.011445	0.488687	0.484145
292	C	0.013068	0.009644	0.59181
293	H	0.038543	0.508614	0.570031
294	H	0.487608	0.009672	0.569949
295	N	0.156482	0.015865	0.373696
296	N	0.017051	0.155696	0.343651
297	N	0.01313	0.367294	0.34948
298	N	0.367051	0.512683	0.374491
299	C	0.00492	0.222895	0.676238
300	C	0.008311	0.250632	0.641286
301	C	0.512204	0.289662	0.652425
302	C	0.51231	0.301382	0.365325
303	N	0.509221	0.272725	0.396932
304	H	0.514167	0.309193	0.626506
305	H	0.007321	0.242843	0.607597
306	N	0.005646	0.236058	0.38666
307	C	0.996944	0.185098	0.664536
308	H	0.977571	0.181478	0.639856
309	C	0.514105	0.339895	0.378825
310	H	0.515439	0.346524	0.411719
311	C	0.303644	0.512207	0.349299
312	C	0.275207	0.51427	0.648125
313	C	0.235808	0.511464	0.659585
314	C	0.224951	0.506252	0.372297
315	N	0.254069	0.5047	0.403249
316	H	0.215502	0.512221	0.634403
317	H	0.282917	0.517421	0.614651
318	N	0.290461	0.507561	0.392701
319	C	0.343216	0.513937	0.341021
320	H	0.353211	0.516158	0.642743
321	C	0.187911	0.500642	0.388957
322	H	0.186291	0.485341	0.417602
323	C	0.012911	0.048625	0.998502
324	C	0.013782	0.046439	0.950142
325	C	0.01249	0.474027	0.952446
326	C	0.012578	0.474061	0.000918
327	C	0.01277	0.437577	0.690162
328	C	0.012818	0.402527	0.998823
329	C	0.012346	0.403942	0.950886
330	C	0.012216	0.439132	0.927984
331	C	0.015896	0.080148	0.923609
332	C	0.016939	0.116252	0.94433
333	C	0.014681	0.120166	0.99222
334	C	0.013504	0.086067	0.685391
335	C	0.47461	0.512629	0.720073
336	C	0.475218	0.513071	0.768533
337	C	0.047726	0.014285	0.769659
338	C	0.04942	0.012701	0.721319
339	C	0.081699	0.016857	0.795642
340	C	0.117614	0.017559	0.774402
341	C	0.121238	0.014277	0.726516
342	C	0.086734	0.012746	0.700638
343	C	0.437738	0.512571	0.698239
344	C	0.402939	0.512821	0.723578
345	C	0.405157	0.512907	0.771488
346	C	0.440665	0.513094	0.793667
347	H	0.380736	0.513016	0.791001
348	H	0.44105	0.513395	0.828612
349	H	0.080564	0.018882	0.830472
350	H	0.141324	0.020685	0.794639
351	H	0.088832	0.01171	0.999188
352	H	0.436169	0.512247	0.996741
353	H	0.01291	0.436472	0.725029
354	H	0.012298	0.379243	0.931939
355	H	0.012135	0.439037	0.893032
356	H	0.013112	0.088575	0.720159
357	H	0.017276	0.078703	0.888776
358	H	0.019443	0.139917	0.923855
359	C	0.012337	0.011967	0.693564
360	C	0.011182	0.513903	0.795195
361	H	0.010425	0.039612	0.816545
362	H	0.011445	0.488687	0.81748
363	C	0.013068	0.009644	0.925141
364	H	0.038543	0.508614	0.903365
365	H	0.487608	0.009672	0.90328
366	N	0.156482	0.015865	0.707027
367	N	0.017051	0.155696	0.676986
368	N	0.01313	0.367294	0.682811
369	N	0.367051	0.512683	0.707825
370	C	0.00492	0.222895	0.009573
371	C	0.008311	0.250632	0.974621
372	C	0.512204	0.289662	0.98576
373	C	0.51231	0.301382	0.698656
374	N	0.509221	0.272725	0.730263
375	H	0.514167	0.309193	0.959837
376	H	0.007321	0.242843	0.940928
377	N	0.005646	0.236058	0.719995
378	C	0.996944	0.185098	0.997871
379	H	0.977571	0.181478	0.973188
380	C	0.514105	0.339895	0.71216
381	H	0.515439	0.346524	0.745054
382	C	0.303644	0.512207	0.682634
383	C	0.275207	0.51427	0.98146
384	C	0.235808	0.511464	0.992919
385	C	0.224951	0.506252	0.705631
386	N	0.254069	0.5047	0.736584
387	H	0.215502	0.512221	0.967738
388	H	0.282917	0.517421	0.947985
389	N	0.290461	0.507561	0.726035
390	C	0.343216	0.513937	0.674354
391	H	0.353211	0.516158	0.976075
392	C	0.187911	0.500642	0.722288
393	H	0.186291	0.485341	0.750937
394	C	0.01291	0.548625	0.331834
395	C	0.012579	0.974063	0.334254
396	C	0.012818	0.902527	0.332156
397	C	0.014681	0.620168	0.325551
398	H	0.088832	0.511708	0.332519
399	H	0.436167	0.012248	0.330078
400	N	0.017051	0.655696	0.010313
401	C	0.004922	0.722897	0.3429
402	C	0.996943	0.685098	0.331199
403	C	0.235808	0.011463	0.326253
404	C	0.343217	0.013937	0.007689
405	C	0.01291	0.548625	0.665168
406	C	0.013781	0.546439	0.616807
407	C	0.01249	0.974029	0.619114
408	C	0.012579	0.974063	0.667587
409	C	0.012771	0.937579	0.356827
410	C	0.012818	0.902527	0.665488
411	C	0.012347	0.903944	0.617551
412	C	0.012216	0.939134	0.594649
413	C	0.015895	0.580148	0.590274
414	C	0.016938	0.616251	0.610996
415	C	0.014681	0.620168	0.658885
416	C	0.013503	0.586068	0.352056
417	C	0.474608	0.012627	0.386742
418	C	0.47522	0.01307	0.435201
419	C	0.047726	0.514287	0.436324
420	C	0.04942	0.5127	0.387984
421	C	0.081698	0.516858	0.462308
422	C	0.117614	0.517559	0.441068
423	C	0.121238	0.514279	0.393182
424	C	0.086733	0.512746	0.367304
425	C	0.437739	0.01257	0.364908
426	C	0.40294	0.012821	0.390247
427	C	0.405158	0.012906	0.438153
428	C	0.440666	0.013094	0.460335
429	H	0.380737	0.013017	0.45767
430	H	0.441051	0.013396	0.495281
431	H	0.080564	0.518884	0.497137
432	H	0.141323	0.520687	0.461305
433	H	0.088832	0.511708	0.665854
434	H	0.436167	0.012248	0.66341
435	H	0.01291	0.936471	0.391694
436	H	0.012298	0.879245	0.598605
437	H	0.012135	0.93904	0.559697
438	H	0.013111	0.588576	0.386821
439	H	0.017276	0.578702	0.555438
440	H	0.019443	0.639916	0.590517
441	C	0.012336	0.511969	0.36023
442	C	0.011184	0.013904	0.461864
443	H	0.010424	0.539612	0.48321
444	H	0.011443	0.988687	0.484149
445	C	0.013068	0.509644	0.591807
446	H	0.038544	0.008616	0.570031
447	H	0.48761	0.50967	0.569945
448	N	0.156482	0.515866	0.373692
449	N	0.017051	0.655696	0.343648
450	N	0.01313	0.867293	0.349476
451	N	0.367049	0.012683	0.374491
452	C	0.004922	0.722897	0.676235
453	C	0.008307	0.750635	0.641283
454	C	0.512201	0.789665	0.652422
455	C	0.512309	0.801381	0.365321
456	N	0.509225	0.772725	0.396929
457	H	0.51416	0.809195	0.626503
458	H	0.007314	0.742847	0.60759
459	N	0.00565	0.736057	0.386657
460	C	0.996943	0.685098	0.664533
461	H	0.977573	0.681477	0.639849
462	C	0.514104	0.839894	0.378821
463	H	0.515444	0.846523	0.411719
464	C	0.303642	0.012206	0.349299
465	C	0.275208	0.014271	0.648128
466	C	0.235808	0.011463	0.659588
467	C	0.224952	0.006255	0.3723
468	N	0.25407	0.004702	0.403252
469	H	0.215502	0.012221	0.634403
470	H	0.282918	0.017422	0.614651
471	N	0.290463	0.007563	0.392704
472	C	0.343217	0.013937	0.341022
473	H	0.353212	0.016157	0.642743
474	C	0.187912	0.000645	0.388957
475	H	0.186292	0.985341	0.417606
476	C	0.01291	0.548625	0.998502
477	C	0.013781	0.546439	0.950142
478	C	0.01249	0.974029	0.952446
479	C	0.012579	0.974063	0.000922
480	C	0.012771	0.937579	0.690162
481	C	0.012818	0.902527	0.998823
482	C	0.012347	0.903944	0.950886
483	C	0.012216	0.939134	0.927984
484	C	0.015895	0.580148	0.923606
485	C	0.016938	0.616251	0.94433
486	C	0.014681	0.620168	0.992216
487	C	0.013503	0.586068	0.685391
488	C	0.474608	0.012627	0.720073
489	C	0.47522	0.01307	0.768533
490	C	0.047726	0.514287	0.769655
491	C	0.04942	0.5127	0.721316
492	C	0.081698	0.516858	0.795639
493	C	0.117614	0.517559	0.774402
494	C	0.121238	0.514279	0.726513
495	C	0.086733	0.512746	0.700638
496	C	0.437739	0.01257	0.698243
497	C	0.40294	0.012821	0.723578
498	C	0.405158	0.012906	0.771488
499	C	0.440666	0.013094	0.793667
500	H	0.380737	0.013017	0.791001
501	H	0.441051	0.013396	0.828612
502	H	0.080564	0.518884	0.830468
503	H	0.141323	0.520687	0.794639
504	H	0.088832	0.511708	0.999185
505	H	0.436167	0.012248	0.996745
506	H	0.01291	0.936471	0.725029
507	H	0.012298	0.879245	0.931936
508	H	0.012135	0.93904	0.893032
509	H	0.013111	0.588576	0.720155
510	H	0.017276	0.578702	0.888773
511	H	0.019443	0.639916	0.923851
512	C	0.012336	0.511969	0.693561
513	C	0.011184	0.013904	0.795195
514	H	0.010424	0.539612	0.816545
515	H	0.011443	0.988687	0.81748
516	C	0.013068	0.509644	0.925141
517	H	0.038544	0.008616	0.903365
518	H	0.48761	0.50967	0.90328
519	N	0.156482	0.515866	0.707027
520	N	0.017051	0.655696	0.676982
521	N	0.01313	0.867293	0.682811
522	N	0.367049	0.012683	0.707825
523	C	0.004922	0.722897	0.009569
524	C	0.008307	0.750635	0.974617
525	C	0.512201	0.789665	0.985756
526	C	0.512309	0.801381	0.698656
527	N	0.509225	0.772725	0.73026
528	H	0.51416	0.809195	0.959834
529	H	0.007314	0.742847	0.940925
530	N	0.00565	0.736057	0.719988
531	C	0.996943	0.685098	0.997864
532	H	0.977573	0.681477	0.973184
533	C	0.514104	0.839894	0.712156
534	H	0.515444	0.846523	0.74505
535	C	0.303642	0.012206	0.682634
536	C	0.275208	0.014271	0.98146
537	C	0.235808	0.011463	0.992919
538	C	0.224952	0.006255	0.705631
539	N	0.25407	0.004702	0.736584
540	H	0.215502	0.012221	0.967738
541	H	0.282918	0.017422	0.947985
542	N	0.290463	0.007563	0.726035
543	C	0.343217	0.013937	0.674354
544	H	0.353212	0.016157	0.976078
545	C	0.187912	0.000645	0.722292
546	H	0.186292	0.985341	0.750937
547	C	0.512911	0.048625	0.331836
548	C	0.512579	0.474061	0.334254
549	C	0.512817	0.402527	0.332156
550	C	0.514681	0.120166	0.325554
551	H	0.588831	0.01171	0.33252
552	H	0.936168	0.512247	0.330077
553	N	0.51705	0.155696	0.010317
554	C	0.504921	0.222895	0.342907
555	C	0.496942	0.185098	0.331204
556	C	0.735808	0.511464	0.326252
557	C	0.843218	0.513937	0.007686
558	C	0.512911	0.048625	0.665168
559	C	0.513783	0.046439	0.616811
560	C	0.51249	0.474027	0.619114
561	C	0.512579	0.474061	0.667587
562	C	0.51277	0.437577	0.356827
563	C	0.512817	0.402527	0.665488
564	C	0.512347	0.403942	0.617551
565	C	0.512216	0.439132	0.594649
566	C	0.515897	0.080148	0.590274
567	C	0.51694	0.116252	0.610999
568	C	0.514681	0.120166	0.658888
569	C	0.513503	0.086067	0.35206
570	C	0.974609	0.512629	0.386739
571	C	0.97522	0.513071	0.435198
572	C	0.547726	0.014285	0.436324
573	C	0.549419	0.012701	0.387984
574	C	0.581699	0.016857	0.462308
575	C	0.617615	0.017559	0.441071
576	C	0.621237	0.014277	0.393182
577	C	0.586733	0.012746	0.367307
578	C	0.937738	0.512571	0.364908
579	C	0.902938	0.512821	0.390244
580	C	0.905159	0.512907	0.438153
581	C	0.940667	0.513094	0.460332
582	H	0.880738	0.513016	0.457667
583	H	0.941052	0.513395	0.495277
584	H	0.580563	0.018882	0.497137
585	H	0.641324	0.020685	0.461308
586	H	0.588831	0.01171	0.665854
587	H	0.936168	0.512247	0.66341
588	H	0.512911	0.436472	0.391694
589	H	0.512299	0.379243	0.598605
590	H	0.512136	0.439037	0.559697
591	H	0.513113	0.088575	0.386824
592	H	0.517277	0.078703	0.555442
593	H	0.519444	0.139917	0.59052
594	C	0.512338	0.011967	0.36023
595	C	0.511183	0.513903	0.461861
596	H	0.510423	0.039612	0.483214
597	H	0.511445	0.488687	0.484145
598	C	0.513068	0.009644	0.59181
599	H	0.538542	0.508614	0.570031
600	H	0.987608	0.009672	0.569949
601	N	0.656482	0.015865	0.373696
602	N	0.51705	0.155696	0.343651
603	N	0.513129	0.367294	0.34948
604	N	0.86705	0.512683	0.374491
605	C	0.504921	0.222895	0.676238
606	C	0.508312	0.250632	0.641286
607	C	0.012205	0.289662	0.652425
608	C	0.012309	0.301382	0.365325
609	N	0.00922	0.272725	0.396932
610	H	0.014167	0.309193	0.626506
611	H	0.507322	0.242843	0.607597
612	N	0.505647	0.236058	0.38666
613	C	0.496942	0.185098	0.664536
614	H	0.477572	0.181478	0.639856
615	C	0.014104	0.339895	0.378825
616	H	0.01544	0.346524	0.411719
617	C	0.803643	0.512207	0.349299
618	C	0.775208	0.51427	0.648125
619	C	0.735808	0.511464	0.659585
620	C	0.72495	0.506252	0.372297
621	N	0.754068	0.5047	0.403249
622	H	0.715503	0.512221	0.634403
623	H	0.782919	0.517421	0.614651
624	N	0.79046	0.507561	0.392701
625	C	0.843218	0.513937	0.341021
626	H	0.853213	0.516158	0.642743
627	C	0.687912	0.500642	0.388957
628	H	0.686291	0.485341	0.417602
629	C	0.512911	0.048625	0.998502
630	C	0.513783	0.046439	0.950142
631	C	0.51249	0.474027	0.952446
632	C	0.512579	0.474061	0.000918
633	C	0.51277	0.437577	0.690162
634	C	0.512817	0.402527	0.998823
635	C	0.512347	0.403942	0.950886
636	C	0.512216	0.439132	0.927984
637	C	0.515897	0.080148	0.923609
638	C	0.51694	0.116252	0.94433
639	C	0.514681	0.120166	0.99222
640	C	0.513503	0.086067	0.685391
641	C	0.974609	0.512629	0.720073
642	C	0.97522	0.513071	0.768533
643	C	0.547726	0.014285	0.769659
644	C	0.549419	0.012701	0.721319
645	C	0.581699	0.016857	0.795642
646	C	0.617615	0.017559	0.774402
647	C	0.621237	0.014277	0.726516
648	C	0.586733	0.012746	0.700638
649	C	0.937738	0.512571	0.698239
650	C	0.902938	0.512821	0.723578
651	C	0.905159	0.512907	0.771488
652	C	0.940667	0.513094	0.793667
653	H	0.880738	0.513016	0.791001
654	H	0.941052	0.513395	0.828612
655	H	0.580563	0.018882	0.830472
656	H	0.641324	0.020685	0.794639
657	H	0.588831	0.01171	0.999188
658	H	0.936168	0.512247	0.996741
659	H	0.512911	0.436472	0.725029
660	H	0.512299	0.379243	0.931939
661	H	0.512136	0.439037	0.893032
662	H	0.513113	0.088575	0.720159
663	H	0.517277	0.078703	0.888776
664	H	0.519444	0.139917	0.923855
665	C	0.512338	0.011967	0.693564
666	C	0.511183	0.513903	0.795195
667	H	0.510423	0.039612	0.816545
668	H	0.511445	0.488687	0.81748
669	C	0.513068	0.009644	0.925141
670	H	0.538542	0.508614	0.903365
671	H	0.987608	0.009672	0.90328
672	N	0.656482	0.015865	0.707027
673	N	0.51705	0.155696	0.676986
674	N	0.513129	0.367294	0.682811
675	N	0.86705	0.512683	0.707825
676	C	0.504921	0.222895	0.009573
677	C	0.508312	0.250632	0.974621
678	C	0.012205	0.289662	0.98576
679	C	0.012309	0.301382	0.698656
680	N	0.00922	0.272725	0.730263
681	H	0.014167	0.309193	0.959837
682	H	0.507322	0.242843	0.940928
683	N	0.505647	0.236058	0.719995
684	C	0.496942	0.185098	0.997871
685	H	0.477572	0.181478	0.973188
686	C	0.014104	0.339895	0.71216
687	H	0.01544	0.346524	0.745054
688	C	0.803643	0.512207	0.682634
689	C	0.775208	0.51427	0.98146
690	C	0.735808	0.511464	0.992919
691	C	0.72495	0.506252	0.705631
692	N	0.754068	0.5047	0.736584
693	H	0.715503	0.512221	0.967738
694	H	0.782919	0.517421	0.947985
695	N	0.79046	0.507561	0.726035
696	C	0.843218	0.513937	0.674354
697	H	0.853213	0.516158	0.976075
698	C	0.687912	0.500642	0.722288
699	H	0.686291	0.485341	0.750937
700	C	0.51291	0.548625	0.331834
701	C	0.512578	0.974063	0.334254
702	C	0.512819	0.902527	0.332156
703	C	0.51468	0.620168	0.325551
704	H	0.588832	0.511708	0.332519
705	H	0.936169	0.012248	0.330078
706	N	0.517052	0.655696	0.010313
707	C	0.50492	0.722897	0.3429
708	C	0.496944	0.685098	0.331199
709	C	0.735807	0.011463	0.326253
710	C	0.843219	0.013937	0.007689
711	C	0.51291	0.548625	0.665168
712	C	0.513782	0.546439	0.616807
713	C	0.512489	0.974029	0.619114
714	C	0.512578	0.974063	0.667587
715	C	0.512772	0.937579	0.356827
716	C	0.512819	0.902527	0.665488
717	C	0.512346	0.903944	0.617551
718	C	0.512218	0.939134	0.594649
719	C	0.515896	0.580148	0.590274
720	C	0.516939	0.616251	0.610996
721	C	0.51468	0.620168	0.658885
722	C	0.513502	0.586068	0.352056
723	C	0.97461	0.012627	0.386742
724	C	0.975222	0.01307	0.435201
725	C	0.547725	0.514287	0.436324
726	C	0.549421	0.5127	0.387984
727	C	0.581698	0.516858	0.462308
728	C	0.617614	0.517559	0.441068
729	C	0.621239	0.514279	0.393182
730	C	0.586735	0.512746	0.367304
731	C	0.937739	0.01257	0.364908
732	C	0.902939	0.012821	0.390247
733	C	0.905157	0.012906	0.438153
734	C	0.940666	0.013094	0.460335
735	H	0.880739	0.013017	0.45767
736	H	0.94105	0.013396	0.495281
737	H	0.580565	0.518884	0.497137
738	H	0.641323	0.520687	0.461305
739	H	0.588832	0.511708	0.665854
740	H	0.936169	0.012248	0.66341
741	H	0.51291	0.936471	0.391694
742	H	0.512298	0.879245	0.598605
743	H	0.512135	0.93904	0.559697
744	H	0.513112	0.588576	0.386821
745	H	0.517276	0.578702	0.555438
746	H	0.519443	0.639916	0.590517
747	C	0.512337	0.511969	0.36023
748	C	0.511184	0.013904	0.461864
749	H	0.510422	0.539612	0.48321
750	H	0.511444	0.988687	0.484149
751	C	0.513069	0.509644	0.591807
752	H	0.538544	0.008616	0.570031
753	H	0.987609	0.50967	0.569945
754	N	0.656481	0.515866	0.373692
755	N	0.517052	0.655696	0.343648
756	N	0.51313	0.867293	0.349476
757	N	0.867051	0.012683	0.374491
758	C	0.50492	0.722897	0.676235
759	C	0.508308	0.750635	0.641283
760	C	0.0122	0.789665	0.652422
761	C	0.012309	0.801381	0.365321
762	N	0.009224	0.772725	0.396929
763	H	0.014159	0.809195	0.626503
764	H	0.507315	0.742847	0.60759
765	N	0.505651	0.736057	0.386657
766	C	0.496944	0.685098	0.664533
767	H	0.477574	0.681477	0.639849
768	C	0.014105	0.839894	0.378821
769	H	0.015443	0.846523	0.411719
770	C	0.803644	0.012206	0.349299
771	C	0.775209	0.014271	0.648128
772	C	0.735807	0.011463	0.659588
773	C	0.724952	0.006255	0.3723
774	N	0.75407	0.004702	0.403252
775	H	0.715501	0.012221	0.634403
776	H	0.782917	0.017422	0.614651
777	N	0.790462	0.007563	0.392704
778	C	0.843219	0.013937	0.341022
779	H	0.853211	0.016157	0.642743
780	C	0.687911	0.000645	0.388957
781	H	0.686293	0.985341	0.417606
782	C	0.51291	0.548625	0.998502
783	C	0.513782	0.546439	0.950142
784	C	0.512489	0.974029	0.952446
785	C	0.512578	0.974063	0.000922
786	C	0.512772	0.937579	0.690162
787	C	0.512819	0.902527	0.998823
788	C	0.512346	0.903944	0.950886
789	C	0.512218	0.939134	0.927984
790	C	0.515896	0.580148	0.923606
791	C	0.516939	0.616251	0.94433
792	C	0.51468	0.620168	0.992216
793	C	0.513502	0.586068	0.685391
794	C	0.97461	0.012627	0.720073
795	C	0.975222	0.01307	0.768533
796	C	0.547725	0.514287	0.769655
797	C	0.549421	0.5127	0.721316
798	C	0.581698	0.516858	0.795639
799	C	0.617614	0.517559	0.774402
800	C	0.621239	0.514279	0.726513
801	C	0.586735	0.512746	0.700638
802	C	0.937739	0.01257	0.698243
803	C	0.902939	0.012821	0.723578
804	C	0.905157	0.012906	0.771488
805	C	0.940666	0.013094	0.793667
806	H	0.880739	0.013017	0.791001
807	H	0.94105	0.013396	0.828612
808	H	0.580565	0.518884	0.830468
809	H	0.641323	0.520687	0.794639
810	H	0.588832	0.511708	0.999185
811	H	0.936169	0.012248	0.996745
812	H	0.51291	0.936471	0.725029
813	H	0.512298	0.879245	0.931936
814	H	0.512135	0.93904	0.893032
815	H	0.513112	0.588576	0.720155
816	H	0.517276	0.578702	0.888773
817	H	0.519443	0.639916	0.923851
818	C	0.512337	0.511969	0.693561
819	C	0.511184	0.013904	0.795195
820	H	0.510422	0.539612	0.816545
821	H	0.511444	0.988687	0.81748
822	C	0.513069	0.509644	0.925141
823	H	0.538544	0.008616	0.903365
824	H	0.987609	0.50967	0.90328
825	N	0.656481	0.515866	0.707027
826	N	0.517052	0.655696	0.676982
827	N	0.51313	0.867293	0.682811
828	N	0.867051	0.012683	0.707825
829	C	0.50492	0.722897	0.009569
830	C	0.508308	0.750635	0.974617
831	C	0.0122	0.789665	0.985756
832	C	0.012309	0.801381	0.698656
833	N	0.009224	0.772725	0.73026
834	H	0.014159	0.809195	0.959834
835	H	0.507315	0.742847	0.940925
836	N	0.505651	0.736057	0.719988
837	C	0.496944	0.685098	0.997864
838	H	0.477574	0.681477	0.973184
839	C	0.014105	0.839894	0.712156
840	H	0.015443	0.846523	0.74505
841	C	0.803644	0.012206	0.682634
842	C	0.775209	0.014271	0.98146
843	C	0.735807	0.011463	0.992919
844	C	0.724952	0.006255	0.705631
845	N	0.75407	0.004702	0.736584
846	H	0.715501	0.012221	0.967738
847	H	0.782917	0.017422	0.947985
848	N	0.790462	0.007563	0.726035
849	C	0.843219	0.013937	0.674354
850	H	0.853211	0.016157	0.976078
851	C	0.687911	0.000645	0.722292
852	H	0.686293	0.985341	0.750937
