data_C720H360N288O144_2018-02-15_10:35:56
#******************************************
#
# CIF file created by Zeo++
# Zeo++ is an open source package to
# analyze microporous materials
#
#*******************************************

_cell_length_a		46.1881   
_cell_length_b		46.188   
_cell_length_c		29.4882   
_cell_angle_alpha		90   
_cell_angle_beta		90   
_cell_angle_gamma		120   

_symmetry_space_group_name_H-M		'P1'
_symmetry_Int_Tables_number		1
_symmetry_cell_setting		Monoclinic

loop_
_symmetry_equiv_pos_as_xyz
'+x,+y,+z'

loop_
_atom_site_label
_atom_site_type_symbol
_atom_site_fract_x
_atom_site_fract_y
_atom_site_fract_z
1	C	0.030486	0.26774	0.346467
2	C	0.050007	0.251497	0.013123
3	C	0.083775	0.266887	0.998581
4	C	0.099779	0.301272	0.985739
5	C	0.084367	0.320502	0.330377
6	C	0.050246	0.30336	0.343456
7	N	0.129889	0.317012	0.963991
8	H	0.040068	0.317892	0.351103
9	H	0.141296	0.305487	0.954323
10	H	0.135719	0.33711	0.280221
11	H	0.039494	0.227106	0.022665
12	C	0.162343	0.249028	0.022514
13	N	0.149947	0.247021	0.313275
14	C	0.120128	0.24489	0.303507
15	C	0.102451	0.25032	0.005218
16	N	0.114543	0.252015	0.047891
17	C	0.142204	0.249742	0.058445
18	H	0.114514	0.246169	0.270311
19	N	0.153843	0.25391	0.103506
20	O	0.158714	0.281115	0.11978
21	O	0.132526	0.230713	0.127751
22	C	0.105278	0.35502	0.008026
23	N	0.11592	0.378212	0.307344
24	C	0.144287	0.40893	0.308635
25	C	0.166905	0.416815	0.011798
26	N	0.156855	0.392932	0.044585
27	C	0.127147	0.363617	0.045823
28	H	0.151454	0.42319	0.27988
29	N	0.120471	0.340842	0.08164
30	O	0.143067	0.333367	0.084432
31	O	0.119597	0.353845	0.118625
32	C	0.030486	0.26774	0.679803
33	C	0.050007	0.251497	0.346457
34	C	0.083775	0.266887	0.331912
35	C	0.099779	0.301272	0.319071
36	C	0.084367	0.320502	0.663712
37	C	0.050246	0.30336	0.676792
38	N	0.129889	0.317012	0.297323
39	H	0.040068	0.317892	0.684436
40	H	0.141296	0.305487	0.287657
41	H	0.135719	0.33711	0.613553
42	H	0.039494	0.227106	0.356
43	C	0.162343	0.249028	0.355847
44	N	0.149947	0.247021	0.64661
45	C	0.120128	0.24489	0.63684
46	C	0.102451	0.25032	0.338549
47	N	0.114543	0.252015	0.381227
48	C	0.142204	0.249742	0.39178
49	H	0.114514	0.246169	0.603644
50	N	0.153843	0.25391	0.436839
51	O	0.158714	0.281115	0.453113
52	O	0.132526	0.230713	0.461085
53	C	0.105278	0.35502	0.341356
54	N	0.11592	0.378212	0.640676
55	C	0.144287	0.40893	0.641968
56	C	0.166905	0.416815	0.345131
57	N	0.156855	0.392932	0.37792
58	C	0.127147	0.363617	0.379158
59	H	0.151454	0.42319	0.613214
60	N	0.120471	0.340842	0.414972
61	O	0.143067	0.333367	0.417767
62	O	0.119597	0.353845	0.45196
63	C	0.030486	0.26774	0.013134
64	C	0.050007	0.251497	0.67979
65	C	0.083775	0.266887	0.665245
66	C	0.099779	0.301272	0.652406
67	C	0.084367	0.320502	0.997045
68	C	0.050246	0.30336	0.010123
69	N	0.129889	0.317012	0.630658
70	H	0.040068	0.317892	0.017767
71	H	0.141296	0.305487	0.62099
72	H	0.135719	0.33711	0.946889
73	H	0.039494	0.227106	0.689332
74	C	0.162343	0.249028	0.689183
75	N	0.149947	0.247021	0.979943
76	C	0.120128	0.24489	0.970177
77	C	0.102451	0.25032	0.671881
78	N	0.114543	0.252015	0.714559
79	C	0.142204	0.249742	0.725113
80	H	0.114514	0.246169	0.93698
81	N	0.153843	0.25391	0.770175
82	O	0.158714	0.281115	0.786449
83	O	0.132526	0.230713	0.794418
84	C	0.105278	0.35502	0.674689
85	N	0.11592	0.378212	0.974012
86	C	0.144287	0.40893	0.975301
87	C	0.166905	0.416815	0.678467
88	N	0.156855	0.392932	0.711253
89	C	0.127147	0.363617	0.712491
90	H	0.151454	0.42319	0.946547
91	N	0.120471	0.340842	0.748308
92	O	0.143067	0.333367	0.751099
93	O	0.119597	0.353845	0.785293
94	C	0.030487	0.767742	0.346467
95	C	0.050007	0.751499	0.013124
96	C	0.083774	0.766887	0.998581
97	C	0.09978	0.801274	0.985739
98	C	0.084367	0.820502	0.330377
99	C	0.050245	0.803362	0.343456
100	N	0.129888	0.817012	0.963991
101	H	0.040066	0.817892	0.351103
102	H	0.141296	0.805487	0.954323
103	H	0.13572	0.837112	0.280221
104	H	0.039493	0.727107	0.022665
105	C	0.162342	0.749027	0.022515
106	N	0.149946	0.747022	0.313276
107	C	0.120128	0.744889	0.303507
108	C	0.10245	0.750319	0.005218
109	N	0.114544	0.752017	0.047892
110	C	0.142204	0.749742	0.058445
111	H	0.114513	0.746169	0.270311
112	N	0.153844	0.753912	0.103506
113	O	0.158713	0.781114	0.11978
114	O	0.132526	0.730714	0.127752
115	C	0.105279	0.855019	0.008026
116	N	0.115918	0.878212	0.307344
117	C	0.144288	0.908932	0.308635
118	C	0.166905	0.916814	0.011798
119	N	0.156857	0.892934	0.044585
120	C	0.127147	0.863617	0.045823
121	H	0.151453	0.923189	0.27988
122	N	0.12047	0.840842	0.08164
123	O	0.143067	0.833367	0.084432
124	O	0.119597	0.853844	0.118625
125	C	0.030487	0.767742	0.679803
126	C	0.050007	0.751499	0.346457
127	C	0.083774	0.766887	0.331913
128	C	0.09978	0.801274	0.319071
129	C	0.084367	0.820502	0.663712
130	C	0.050245	0.803362	0.676792
131	N	0.129888	0.817012	0.297323
132	H	0.040066	0.817892	0.684436
133	H	0.141296	0.805487	0.287657
134	H	0.13572	0.837112	0.613556
135	H	0.039493	0.727107	0.356
136	C	0.162342	0.749027	0.355847
137	N	0.149946	0.747022	0.64661
138	C	0.120128	0.744889	0.63684
139	C	0.10245	0.750319	0.338549
140	N	0.114544	0.752017	0.381227
141	C	0.142204	0.749742	0.39178
142	H	0.114513	0.746169	0.603644
143	N	0.153844	0.753912	0.436839
144	O	0.158713	0.781114	0.453113
145	O	0.132526	0.730714	0.461085
146	C	0.105279	0.855019	0.341356
147	N	0.115918	0.878212	0.640679
148	C	0.144288	0.908932	0.641968
149	C	0.166905	0.916814	0.345131
150	N	0.156857	0.892934	0.37792
151	C	0.127147	0.863617	0.379158
152	H	0.151453	0.923189	0.613214
153	N	0.12047	0.840842	0.414972
154	O	0.143067	0.833367	0.417767
155	O	0.119597	0.853844	0.45196
156	C	0.030487	0.767742	0.013134
157	C	0.050007	0.751499	0.67979
158	C	0.083774	0.766887	0.665245
159	C	0.09978	0.801274	0.652406
160	C	0.084367	0.820502	0.997045
161	C	0.050245	0.803362	0.010123
162	N	0.129888	0.817012	0.630658
163	H	0.040066	0.817892	0.017767
164	H	0.141296	0.805487	0.62099
165	H	0.13572	0.837112	0.946889
166	H	0.039493	0.727107	0.689332
167	C	0.162342	0.749027	0.689183
168	N	0.149946	0.747022	0.979943
169	C	0.120128	0.744889	0.970177
170	C	0.10245	0.750319	0.671881
171	N	0.114544	0.752017	0.714559
172	C	0.142204	0.749742	0.725113
173	H	0.114513	0.746169	0.93698
174	N	0.153844	0.753912	0.770175
175	O	0.158713	0.781114	0.786449
176	O	0.132526	0.730714	0.794418
177	C	0.105279	0.855019	0.674689
178	N	0.115918	0.878212	0.974012
179	C	0.144288	0.908932	0.975301
180	C	0.166905	0.916814	0.678464
181	N	0.156857	0.892934	0.711253
182	C	0.127147	0.863617	0.712491
183	H	0.151453	0.923189	0.946547
184	N	0.12047	0.840842	0.748308
185	O	0.143067	0.833367	0.751099
186	O	0.119597	0.853844	0.785293
187	C	0.271527	0.251107	0.348285
188	C	0.274175	0.199099	0.999371
189	C	0.256191	0.215586	0.010358
190	C	0.252579	0.26826	0.353402
191	C	0.268264	0.303822	0.02339
192	C	0.250866	0.321515	0.030091
193	C	0.215088	0.303352	0.030105
194	C	0.19789	0.267772	0.358489
195	C	0.216828	0.251502	0.352795
196	N	0.19738	0.319927	0.030588
197	H	0.203365	0.226289	0.348244
198	H	0.207684	0.343717	0.033302
199	H	0.173718	0.309072	0.358187
200	H	0.231288	0.200579	0.016322
201	C	0.273278	0.02796	0.347108
202	C	0.257286	0.047604	0.344439
203	C	0.274352	0.081905	0.33227
204	H	0.232527	0.037212	0.352012
205	C	0.255126	0.491745	0.349071
206	C	0.219472	0.471965	0.012026
207	C	0.20217	0.43677	0.005981
208	C	0.221366	0.4207	0.999364
209	C	0.256091	0.438055	0.343208
210	C	0.271683	0.472657	0.35268
211	N	0.20647	0.38939	0.981028
212	H	0.184368	0.379667	0.96824
213	H	0.219173	0.379437	0.303521
214	H	0.205087	0.482937	0.01383
215	C	0.272342	0.419722	0.020899
216	N	0.278785	0.404087	0.319668
217	C	0.279789	0.37521	0.323546
218	C	0.269075	0.357055	0.031281
219	N	0.262938	0.372717	0.065929
220	C	0.265584	0.403455	0.063628
221	H	0.28134	0.364082	0.294391
222	N	0.255575	0.415485	0.100941
223	O	0.225833	0.395132	0.111694
224	O	0.273828	0.419197	0.134508
225	C	0.260522	0.102692	0.009112
226	N	0.246731	0.111427	0.307828
227	C	0.244295	0.139741	0.306758
228	C	0.26034	0.164281	0.00748
229	N	0.275404	0.156072	0.040729
230	C	0.275095	0.126518	0.044567
231	H	0.236186	0.145383	0.277629
232	O	0.279822	0.122684	0.117789
233	C	0.271527	0.251107	0.681617
234	C	0.274175	0.199099	0.332702
235	C	0.256191	0.215586	0.343693
236	C	0.252579	0.26826	0.686735
237	C	0.268264	0.303822	0.356725
238	C	0.250866	0.321515	0.363426
239	C	0.215088	0.303352	0.36344
240	C	0.19789	0.267772	0.691825
241	C	0.216828	0.251502	0.686128
242	N	0.19738	0.319927	0.363921
243	H	0.203365	0.226289	0.681577
244	H	0.207684	0.343717	0.366634
245	H	0.173718	0.309072	0.69152
246	H	0.231288	0.200579	0.349655
247	C	0.273278	0.02796	0.680441
248	C	0.257286	0.047604	0.677772
249	C	0.274352	0.081905	0.665604
250	H	0.232527	0.037212	0.685348
251	C	0.255126	0.491745	0.682404
252	C	0.219472	0.471965	0.345358
253	C	0.20217	0.43677	0.339312
254	C	0.221366	0.4207	0.332697
255	C	0.256091	0.438055	0.676544
256	C	0.271683	0.472657	0.686012
257	N	0.20647	0.38939	0.314361
258	H	0.184368	0.379667	0.301573
259	H	0.219173	0.379437	0.636854
260	H	0.205087	0.482937	0.347166
261	C	0.272342	0.419722	0.354233
262	N	0.278785	0.404087	0.653003
263	C	0.279789	0.37521	0.656879
264	C	0.269075	0.357055	0.364613
265	N	0.262938	0.372717	0.399264
266	C	0.265584	0.403455	0.396962
267	H	0.28134	0.364082	0.627725
268	N	0.255575	0.415485	0.434275
269	O	0.225833	0.395132	0.445028
270	O	0.273828	0.419197	0.467841
271	C	0.260522	0.102692	0.342445
272	N	0.246731	0.111427	0.641164
273	C	0.244295	0.139741	0.640092
274	C	0.26034	0.164281	0.340814
275	N	0.275404	0.156072	0.374064
276	C	0.275095	0.126518	0.3779
277	H	0.236186	0.145383	0.610962
278	O	0.279822	0.122684	0.451122
279	C	0.271527	0.251107	0.01495
280	C	0.274175	0.199099	0.666035
281	C	0.256191	0.215586	0.677026
282	C	0.252579	0.26826	0.020068
283	C	0.268264	0.303822	0.690058
284	C	0.250866	0.321515	0.696759
285	C	0.215088	0.303352	0.696773
286	C	0.19789	0.267772	0.025156
287	C	0.216828	0.251502	0.01946
288	N	0.19738	0.319927	0.697254
289	H	0.203365	0.226289	0.01491
290	H	0.207684	0.343717	0.699971
291	H	0.173718	0.309072	0.024852
292	H	0.231288	0.200579	0.682988
293	C	0.273278	0.02796	0.013775
294	C	0.257286	0.047604	0.011105
295	C	0.274352	0.081905	0.998937
296	H	0.232527	0.037212	0.018679
297	C	0.255126	0.491745	0.015737
298	C	0.219472	0.471965	0.678694
299	C	0.20217	0.43677	0.672644
300	C	0.221366	0.4207	0.666032
301	C	0.256091	0.438055	0.009876
302	C	0.271683	0.472657	0.019346
303	N	0.20647	0.38939	0.647695
304	H	0.184368	0.379667	0.634907
305	H	0.219173	0.379437	0.97019
306	H	0.205087	0.482937	0.680498
307	C	0.272342	0.419722	0.687566
308	N	0.278785	0.404087	0.986336
309	C	0.279789	0.37521	0.990215
310	C	0.269075	0.357055	0.697949
311	N	0.262938	0.372717	0.732597
312	C	0.265584	0.403455	0.730294
313	H	0.28134	0.364082	0.961058
314	N	0.255575	0.415485	0.767608
315	O	0.225833	0.395132	0.778361
316	O	0.273828	0.419197	0.801177
317	C	0.260522	0.102692	0.675781
318	N	0.246731	0.111427	0.974497
319	C	0.244295	0.139741	0.973425
320	C	0.26034	0.164281	0.674147
321	N	0.275404	0.156072	0.707397
322	C	0.275095	0.126518	0.711236
323	H	0.236186	0.145383	0.944298
324	O	0.279822	0.122684	0.784455
325	C	0.271527	0.751107	0.348285
326	C	0.274175	0.699099	0.999371
327	C	0.256191	0.715587	0.010359
328	C	0.252578	0.768259	0.353402
329	C	0.268263	0.803822	0.02339
330	C	0.250865	0.821514	0.03009
331	C	0.215088	0.803354	0.030105
332	C	0.197891	0.767774	0.358489
333	C	0.216827	0.751502	0.352795
334	N	0.197379	0.819927	0.030587
335	H	0.203365	0.726289	0.348244
336	H	0.207683	0.843717	0.0333
337	H	0.173719	0.809074	0.358183
338	H	0.231287	0.700579	0.016321
339	C	0.273277	0.52796	0.347108
340	C	0.257286	0.547605	0.344439
341	C	0.274352	0.581904	0.33227
342	H	0.232527	0.537212	0.352012
343	C	0.255125	0.991744	0.349071
344	C	0.219471	0.971964	0.012025
345	C	0.20217	0.936769	0.005981
346	C	0.221366	0.920702	0.999364
347	C	0.25609	0.938054	0.343208
348	C	0.271682	0.972657	0.35268
349	N	0.206471	0.889392	0.981028
350	H	0.184366	0.879667	0.96824
351	H	0.219171	0.879437	0.30352
352	H	0.205086	0.982937	0.01383
353	C	0.272342	0.919724	0.020899
354	N	0.278786	0.904089	0.319667
355	C	0.279789	0.875209	0.323546
356	C	0.269074	0.857054	0.031281
357	N	0.262937	0.872717	0.065928
358	C	0.265583	0.903454	0.063628
359	H	0.281341	0.864084	0.294391
360	N	0.255575	0.915487	0.10094
361	O	0.225832	0.895132	0.111694
362	O	0.273827	0.919197	0.134508
363	C	0.260521	0.602692	0.009112
364	N	0.246731	0.611427	0.307828
365	C	0.244295	0.639742	0.306758
366	C	0.26034	0.664282	0.00748
367	N	0.275403	0.656072	0.040729
368	C	0.275095	0.626517	0.044567
369	H	0.236185	0.645382	0.277629
370	O	0.279822	0.622684	0.117789
371	C	0.271527	0.751107	0.681617
372	C	0.274175	0.699099	0.332702
373	C	0.256191	0.715587	0.343693
374	C	0.252578	0.768259	0.686735
375	C	0.268263	0.803822	0.356725
376	C	0.250865	0.821514	0.363423
377	C	0.215088	0.803354	0.36344
378	C	0.197891	0.767774	0.691825
379	C	0.216827	0.751502	0.686128
380	N	0.197379	0.819927	0.363921
381	H	0.203365	0.726289	0.681577
382	H	0.207683	0.843717	0.366634
383	H	0.173719	0.809074	0.69152
384	H	0.231287	0.700579	0.349655
385	C	0.273277	0.52796	0.680441
386	C	0.257286	0.547605	0.677772
387	C	0.274352	0.581904	0.665604
388	H	0.232527	0.537212	0.685348
389	C	0.255125	0.991744	0.682404
390	C	0.219471	0.971964	0.345358
391	C	0.20217	0.936769	0.339312
392	C	0.221366	0.920702	0.332696
393	C	0.25609	0.938054	0.676544
394	C	0.271682	0.972657	0.686012
395	N	0.206471	0.889392	0.31436
396	H	0.184366	0.879667	0.301572
397	H	0.219171	0.879437	0.636854
398	H	0.205086	0.982937	0.347166
399	C	0.272342	0.919724	0.354233
400	N	0.278786	0.904089	0.653003
401	C	0.279789	0.875209	0.656879
402	C	0.269074	0.857054	0.364613
403	N	0.262937	0.872717	0.399261
404	C	0.265583	0.903454	0.396962
405	H	0.281341	0.864084	0.627725
406	N	0.255575	0.915487	0.434275
407	O	0.225832	0.895132	0.445028
408	O	0.273827	0.919197	0.467841
409	C	0.260521	0.602692	0.342445
410	N	0.246731	0.611427	0.641161
411	C	0.244295	0.639742	0.640092
412	C	0.26034	0.664282	0.340814
413	N	0.275403	0.656072	0.374064
414	C	0.275095	0.626517	0.3779
415	H	0.236185	0.645382	0.610962
416	O	0.279822	0.622684	0.451122
417	C	0.271527	0.751107	0.01495
418	C	0.274175	0.699099	0.666035
419	C	0.256191	0.715587	0.677026
420	C	0.252578	0.768259	0.020068
421	C	0.268263	0.803822	0.690058
422	C	0.250865	0.821514	0.696759
423	C	0.215088	0.803354	0.696773
424	C	0.197891	0.767774	0.025156
425	C	0.216827	0.751502	0.01946
426	N	0.197379	0.819927	0.697254
427	H	0.203365	0.726289	0.01491
428	H	0.207683	0.843717	0.699967
429	H	0.173719	0.809074	0.024851
430	H	0.231287	0.700579	0.682988
431	C	0.273277	0.52796	0.013775
432	C	0.257286	0.547605	0.011105
433	C	0.274352	0.581904	0.998937
434	H	0.232527	0.537212	0.018679
435	C	0.255125	0.991744	0.015737
436	C	0.219471	0.971964	0.678694
437	C	0.20217	0.936769	0.672644
438	C	0.221366	0.920702	0.666032
439	C	0.25609	0.938054	0.009875
440	C	0.271682	0.972657	0.019346
441	N	0.206471	0.889392	0.647692
442	H	0.184366	0.879667	0.634907
443	H	0.219171	0.879437	0.970187
444	H	0.205086	0.982937	0.680498
445	C	0.272342	0.919724	0.687566
446	N	0.278786	0.904089	0.986336
447	C	0.279789	0.875209	0.990212
448	C	0.269074	0.857054	0.697949
449	N	0.262937	0.872717	0.732597
450	C	0.265583	0.903454	0.730294
451	H	0.281341	0.864084	0.961058
452	N	0.255575	0.915487	0.767608
453	O	0.225832	0.895132	0.778361
454	O	0.273827	0.919197	0.801177
455	C	0.260521	0.602692	0.675781
456	N	0.246731	0.611427	0.974497
457	C	0.244295	0.639742	0.973425
458	C	0.26034	0.664282	0.674147
459	N	0.275403	0.656072	0.707397
460	C	0.275095	0.626517	0.711236
461	H	0.236185	0.645382	0.944298
462	O	0.279822	0.622684	0.784455
463	N	0.387307	0.19544	0.021533
464	H	0.374185	0.20605	0.017041
465	H	0.374642	0.171529	0.352066
466	C	0.307323	0.267925	0.350204
467	C	0.326564	0.253145	0.337099
468	C	0.309073	0.218915	0.99053
469	H	0.320606	0.292062	0.361008
470	N	0.324766	0.204803	0.968074
471	H	0.311624	0.183755	0.952553
472	H	0.347155	0.218236	0.289734
473	H	0.293594	0.31815	0.021222
474	C	0.30888	0.097297	0.987129
475	C	0.327199	0.081011	0.998506
476	C	0.309016	0.047257	0.012813
477	N	0.32334	0.127322	0.965192
478	H	0.296327	0.483872	0.361052
479	H	0.345731	0.137739	0.953326
480	H	0.309399	0.134816	0.284288
481	H	0.32305	0.03645	0.019767
482	C	0.361111	0.268335	0.015119
483	N	0.383892	0.276225	0.31438
484	N	0.398856	0.258612	0.059527
485	C	0.370179	0.260287	0.057347
486	N	0.347469	0.248131	0.093949
487	O	0.338662	0.218136	0.102154
488	O	0.361052	0.264922	0.128978
489	N	0.292389	0.121647	0.08051
490	O	0.32248	0.144311	0.080713
491	N	0.41302	0.146654	0.312643
492	C	0.385431	0.116586	0.303715
493	C	0.362302	0.099733	0.005692
494	N	0.372267	0.113007	0.047917
495	C	0.402044	0.140957	0.057888
496	H	0.378752	0.110216	0.270595
497	N	0.409358	0.153823	0.102393
498	O	0.387327	0.159743	0.117039
499	O	0.410569	0.132974	0.128431
500	N	0.387307	0.19544	0.354867
501	H	0.374185	0.20605	0.350374
502	H	0.374642	0.171529	0.685402
503	C	0.307323	0.267925	0.68354
504	C	0.326564	0.253145	0.670433
505	C	0.309073	0.218915	0.323863
506	H	0.320606	0.292062	0.694345
507	N	0.324766	0.204803	0.301406
508	H	0.311624	0.183755	0.285885
509	H	0.347155	0.218236	0.623069
510	H	0.293594	0.31815	0.354555
511	C	0.30888	0.097297	0.320462
512	C	0.327199	0.081011	0.331838
513	C	0.309016	0.047257	0.346148
514	N	0.32334	0.127322	0.298522
515	H	0.296327	0.483872	0.694385
516	H	0.345731	0.137739	0.286658
517	H	0.309399	0.134816	0.617622
518	H	0.32305	0.03645	0.3531
519	C	0.361111	0.268335	0.348454
520	N	0.383892	0.276225	0.647712
521	N	0.398856	0.258612	0.392862
522	C	0.370179	0.260287	0.390681
523	N	0.347469	0.248131	0.427282
524	O	0.338662	0.218136	0.435489
525	O	0.361052	0.264922	0.462313
526	N	0.292389	0.121647	0.413843
527	O	0.32248	0.144311	0.414046
528	N	0.41302	0.146654	0.645976
529	C	0.385431	0.116586	0.637047
530	C	0.362302	0.099733	0.339023
531	N	0.372267	0.113007	0.38125
532	C	0.402044	0.140957	0.391224
533	H	0.378752	0.110216	0.603929
534	N	0.409358	0.153823	0.435726
535	O	0.387327	0.159743	0.450373
536	O	0.410569	0.132974	0.461764
537	N	0.387307	0.19544	0.6882
538	H	0.374185	0.20605	0.68371
539	H	0.374642	0.171529	0.018733
540	C	0.307323	0.267925	0.016872
541	C	0.326564	0.253145	0.003766
542	C	0.309073	0.218915	0.657198
543	H	0.320606	0.292062	0.027676
544	N	0.324766	0.204803	0.634738
545	H	0.311624	0.183755	0.61922
546	H	0.347155	0.218236	0.956402
547	H	0.293594	0.31815	0.687888
548	C	0.30888	0.097297	0.653796
549	C	0.327199	0.081011	0.66517
550	C	0.309016	0.047257	0.679481
551	N	0.32334	0.127322	0.631855
552	H	0.296327	0.483872	0.027719
553	H	0.345731	0.137739	0.619993
554	H	0.309399	0.134816	0.950955
555	H	0.32305	0.03645	0.686433
556	C	0.361111	0.268335	0.681787
557	N	0.383892	0.276225	0.981049
558	N	0.398856	0.258612	0.726195
559	C	0.370179	0.260287	0.724014
560	N	0.347469	0.248131	0.760615
561	O	0.338662	0.218136	0.768822
562	O	0.361052	0.264922	0.795646
563	N	0.292389	0.121647	0.747179
564	O	0.32248	0.144311	0.747379
565	N	0.41302	0.146654	0.979309
566	C	0.385431	0.116586	0.970383
567	C	0.362302	0.099733	0.672356
568	N	0.372267	0.113007	0.714587
569	C	0.402044	0.140957	0.724557
570	H	0.378752	0.110216	0.937262
571	N	0.409358	0.153823	0.769059
572	O	0.387327	0.159743	0.783706
573	O	0.410569	0.132974	0.795097
574	N	0.387307	0.695439	0.021533
575	H	0.374185	0.706049	0.017041
576	H	0.37464	0.671529	0.352066
577	C	0.307324	0.767927	0.350204
578	C	0.326564	0.753147	0.337099
579	C	0.309072	0.718914	0.99053
580	H	0.320606	0.792062	0.361008
581	N	0.324764	0.704802	0.968074
582	H	0.311624	0.683754	0.952553
583	H	0.347155	0.718237	0.289734
584	H	0.293593	0.818149	0.021222
585	C	0.30888	0.597297	0.987129
586	C	0.327198	0.581012	0.998506
587	C	0.309015	0.547257	0.012813
588	N	0.323339	0.627322	0.965192
589	H	0.296326	0.983872	0.361052
590	H	0.34573	0.637739	0.953326
591	H	0.309399	0.634817	0.284288
592	H	0.32305	0.53645	0.019767
593	C	0.361111	0.768337	0.015119
594	N	0.383892	0.776224	0.31438
595	N	0.398854	0.758612	0.059527
596	C	0.370178	0.760287	0.057347
597	N	0.347469	0.748132	0.093949
598	O	0.338662	0.718137	0.102154
599	O	0.361052	0.764922	0.128978
600	N	0.292388	0.621647	0.08051
601	O	0.32248	0.644312	0.080713
602	N	0.413021	0.646654	0.312643
603	C	0.38543	0.616587	0.303715
604	C	0.362301	0.599732	0.005692
605	N	0.372266	0.613007	0.047917
606	C	0.402044	0.640957	0.057888
607	H	0.378752	0.610217	0.270595
608	N	0.409358	0.653822	0.102393
609	O	0.387328	0.659744	0.117039
610	O	0.410569	0.632974	0.128431
611	N	0.387307	0.695439	0.354867
612	H	0.374185	0.706049	0.350374
613	H	0.37464	0.671529	0.685399
614	C	0.307324	0.767927	0.68354
615	C	0.326564	0.753147	0.670433
616	C	0.309072	0.718914	0.323863
617	H	0.320606	0.792062	0.694345
618	N	0.324764	0.704802	0.301406
619	H	0.311624	0.683754	0.285885
620	H	0.347155	0.718237	0.623069
621	H	0.293593	0.818149	0.354555
622	C	0.30888	0.597297	0.320461
623	C	0.327198	0.581012	0.331838
624	C	0.309015	0.547257	0.346148
625	N	0.323339	0.627322	0.298522
626	H	0.296326	0.983872	0.694385
627	H	0.34573	0.637739	0.286658
628	H	0.309399	0.634817	0.617622
629	H	0.32305	0.53645	0.3531
630	C	0.361111	0.768337	0.348454
631	N	0.383892	0.776224	0.647712
632	N	0.398854	0.758612	0.392862
633	C	0.370178	0.760287	0.390681
634	N	0.347469	0.748132	0.427282
635	O	0.338662	0.718137	0.435489
636	O	0.361052	0.764922	0.462313
637	N	0.292388	0.621647	0.413843
638	O	0.32248	0.644312	0.414046
639	N	0.413021	0.646654	0.645976
640	C	0.38543	0.616587	0.637047
641	C	0.362301	0.599732	0.339023
642	N	0.372266	0.613007	0.38125
643	C	0.402044	0.640957	0.391224
644	H	0.378752	0.610217	0.603929
645	N	0.409358	0.653822	0.435726
646	O	0.387328	0.659744	0.450373
647	O	0.410569	0.632974	0.461764
648	N	0.387307	0.695439	0.6882
649	H	0.374185	0.706049	0.68371
650	H	0.37464	0.671529	0.018733
651	C	0.307324	0.767927	0.016872
652	C	0.326564	0.753147	0.003766
653	C	0.309072	0.718914	0.657198
654	H	0.320606	0.792062	0.027676
655	N	0.324764	0.704802	0.634738
656	H	0.311624	0.683754	0.61922
657	H	0.347155	0.718237	0.956402
658	H	0.293593	0.818149	0.687888
659	C	0.30888	0.597297	0.653796
660	C	0.327198	0.581012	0.66517
661	C	0.309015	0.547257	0.679481
662	N	0.323339	0.627322	0.631855
663	H	0.296326	0.983872	0.027719
664	H	0.34573	0.637739	0.619993
665	H	0.309399	0.634817	0.950955
666	H	0.32305	0.53645	0.686433
667	C	0.361111	0.768337	0.681787
668	N	0.383892	0.776224	0.981049
669	N	0.398854	0.758612	0.726195
670	C	0.370178	0.760287	0.724014
671	N	0.347469	0.748132	0.760615
672	O	0.338662	0.718137	0.768822
673	O	0.361052	0.764922	0.795646
674	N	0.292388	0.621647	0.747179
675	O	0.32248	0.644312	0.747379
676	N	0.413021	0.646654	0.979309
677	C	0.38543	0.616587	0.970383
678	C	0.362301	0.599732	0.672356
679	N	0.372266	0.613007	0.714587
680	C	0.402044	0.640957	0.724557
681	H	0.378752	0.610217	0.937262
682	N	0.409358	0.653822	0.769059
683	O	0.387328	0.659744	0.783706
684	O	0.410569	0.632974	0.795097
685	C	0.414094	0.27784	0.318329
686	C	0.414094	0.27784	0.651663
687	C	0.414094	0.27784	0.984996
688	C	0.414095	0.777842	0.318329
689	C	0.414095	0.777842	0.651663
690	C	0.414095	0.777842	0.984996
691	C	0.494333	0.249823	0.351289
692	C	0.475078	0.214118	0.351876
693	C	0.439837	0.195559	0.356101
694	C	0.421539	0.212972	0.024124
695	C	0.439317	0.248745	0.023925
696	C	0.474697	0.265925	0.019399
697	H	0.486556	0.200303	0.348546
698	H	0.486145	0.291322	0.018025
699	C	0.421675	0.266717	0.02557
700	H	0.427525	0.280735	0.289446
701	C	0.423087	0.160033	0.021508
702	C	0.494333	0.249823	0.684622
703	C	0.475078	0.214118	0.685209
704	C	0.439837	0.195559	0.689434
705	C	0.421539	0.212972	0.357458
706	C	0.439317	0.248745	0.357258
707	C	0.474697	0.265925	0.352734
708	H	0.486556	0.200303	0.681879
709	H	0.486145	0.291322	0.35136
710	C	0.421675	0.266717	0.358902
711	H	0.427525	0.280735	0.62278
712	C	0.423087	0.160033	0.354843
713	C	0.494333	0.249823	0.017954
714	C	0.475078	0.214118	0.01854
715	C	0.439837	0.195559	0.022766
716	C	0.421539	0.212972	0.690791
717	C	0.439317	0.248745	0.690594
718	C	0.474697	0.265925	0.686067
719	H	0.486556	0.200303	0.015212
720	H	0.486145	0.291322	0.684693
721	C	0.421675	0.266717	0.692239
722	H	0.427525	0.280735	0.956113
723	C	0.423087	0.160033	0.688176
724	C	0.494333	0.749824	0.351289
725	C	0.475077	0.714119	0.351876
726	C	0.439837	0.695559	0.356101
727	C	0.421539	0.712972	0.024124
728	C	0.439316	0.748744	0.023925
729	C	0.474698	0.765924	0.019399
730	H	0.486556	0.700304	0.348546
731	H	0.486143	0.791322	0.018025
732	C	0.421675	0.766717	0.02557
733	H	0.427526	0.780734	0.289446
734	C	0.423087	0.660032	0.021508
735	C	0.494333	0.749824	0.684622
736	C	0.475077	0.714119	0.685209
737	C	0.439837	0.695559	0.689434
738	C	0.421539	0.712972	0.357458
739	C	0.439316	0.748744	0.357258
740	C	0.474698	0.765924	0.352734
741	H	0.486556	0.700304	0.681879
742	H	0.486143	0.791322	0.35136
743	C	0.421675	0.766717	0.358902
744	H	0.427526	0.780734	0.62278
745	C	0.423087	0.660032	0.354843
746	C	0.494333	0.749824	0.017954
747	C	0.475077	0.714119	0.01854
748	C	0.439837	0.695559	0.022766
749	C	0.421539	0.712972	0.690791
750	C	0.439316	0.748744	0.690594
751	C	0.474698	0.765924	0.686067
752	H	0.486556	0.700304	0.015212
753	H	0.486143	0.791322	0.684693
754	C	0.421675	0.766717	0.692239
755	H	0.427526	0.780734	0.956113
756	C	0.423087	0.660032	0.688176
757	C	0.994332	0.249823	0.351289
758	C	0.975077	0.214118	0.351876
759	C	0.939836	0.195559	0.356101
760	C	0.92154	0.212972	0.024124
761	C	0.939316	0.248745	0.023925
762	C	0.974698	0.265925	0.019399
763	H	0.986555	0.200303	0.348546
764	N	0.887308	0.19544	0.021533
765	C	0.530485	0.26774	0.346467
766	C	0.550007	0.251497	0.013123
767	C	0.583774	0.266887	0.998581
768	C	0.59978	0.301272	0.985739
769	C	0.584366	0.320502	0.330377
770	C	0.550245	0.30336	0.343456
771	N	0.629889	0.317012	0.963991
772	H	0.540068	0.317892	0.351103
773	H	0.641296	0.305487	0.954323
774	H	0.635718	0.33711	0.280221
775	H	0.874184	0.20605	0.017041
776	H	0.87464	0.171529	0.352066
777	H	0.986144	0.291322	0.018025
778	H	0.539493	0.227106	0.022665
779	C	0.771527	0.251107	0.348285
780	C	0.807324	0.267925	0.350204
781	C	0.826564	0.253145	0.337099
782	C	0.809072	0.218915	0.99053
783	C	0.774175	0.199099	0.999371
784	C	0.756191	0.215586	0.010358
785	H	0.820607	0.292062	0.361008
786	N	0.824765	0.204803	0.968074
787	C	0.752579	0.26826	0.353402
788	C	0.768264	0.303822	0.02339
789	C	0.750866	0.321515	0.030091
790	C	0.715087	0.303352	0.030105
791	C	0.69789	0.267772	0.358489
792	C	0.716827	0.251502	0.352795
793	N	0.697379	0.319927	0.030588
794	H	0.703365	0.226289	0.348244
795	H	0.707685	0.343717	0.033302
796	H	0.673717	0.309072	0.358187
797	H	0.811626	0.183755	0.952553
798	H	0.847154	0.218236	0.289734
799	H	0.731287	0.200579	0.016322
800	H	0.793593	0.31815	0.021222
801	C	0.773277	0.02796	0.347108
802	C	0.757285	0.047604	0.344439
803	C	0.774353	0.081905	0.33227
804	C	0.808881	0.097297	0.987129
805	C	0.827197	0.081011	0.998506
806	C	0.809015	0.047257	0.012813
807	H	0.732528	0.037212	0.352012
808	N	0.823339	0.127322	0.965192
809	C	0.755126	0.491745	0.349071
810	C	0.719472	0.471965	0.012026
811	C	0.702169	0.43677	0.005981
812	C	0.721366	0.4207	0.999364
813	C	0.756089	0.438055	0.343208
814	C	0.771682	0.472657	0.35268
815	N	0.706469	0.38939	0.981028
816	H	0.796327	0.483872	0.361052
817	H	0.684367	0.379667	0.96824
818	H	0.719173	0.379437	0.303521
819	H	0.84573	0.137739	0.953326
820	H	0.8094	0.134816	0.284288
821	H	0.823049	0.03645	0.019767
822	H	0.705087	0.482937	0.01383
823	C	0.662343	0.249028	0.022514
824	N	0.649946	0.247021	0.313275
825	C	0.620127	0.24489	0.303507
826	C	0.602451	0.25032	0.005218
827	N	0.614544	0.252015	0.047891
828	C	0.642203	0.249742	0.058445
829	H	0.614514	0.246169	0.270311
830	N	0.653844	0.25391	0.103506
831	O	0.658714	0.281115	0.11978
832	O	0.632526	0.230713	0.127751
833	C	0.772341	0.419722	0.020899
834	N	0.778785	0.404087	0.319668
835	C	0.779789	0.37521	0.323546
836	C	0.769075	0.357055	0.031281
837	N	0.762937	0.372717	0.065929
838	C	0.765584	0.403455	0.063628
839	H	0.78134	0.364082	0.294391
840	N	0.755576	0.415485	0.100941
841	O	0.725832	0.395132	0.111694
842	O	0.773828	0.419197	0.134508
843	C	0.605278	0.35502	0.008026
844	N	0.615919	0.378212	0.307344
845	C	0.644285	0.40893	0.308635
846	C	0.666906	0.416815	0.011798
847	N	0.656855	0.392932	0.044585
848	C	0.627146	0.363617	0.045823
849	H	0.651454	0.42319	0.27988
850	N	0.620472	0.340842	0.08164
851	O	0.643068	0.333367	0.084432
852	O	0.619597	0.353845	0.118625
853	C	0.86111	0.268335	0.015119
854	N	0.883893	0.276225	0.31438
855	C	0.914093	0.27784	0.318329
856	C	0.921676	0.266717	0.02557
857	N	0.898855	0.258612	0.059527
858	C	0.870178	0.260287	0.057347
859	H	0.927527	0.280735	0.289446
860	N	0.847468	0.248131	0.093949
861	O	0.838663	0.218136	0.102154
862	O	0.861051	0.264922	0.128978
863	C	0.760522	0.102692	0.009112
864	N	0.746731	0.111427	0.307828
865	C	0.744295	0.139741	0.306758
866	C	0.760339	0.164281	0.00748
867	N	0.775404	0.156072	0.040729
868	C	0.775096	0.126518	0.044567
869	H	0.736185	0.145383	0.277629
870	N	0.792388	0.121647	0.08051
871	O	0.822481	0.144311	0.080713
872	O	0.779821	0.122684	0.117789
873	C	0.923088	0.160033	0.021508
874	N	0.913021	0.146654	0.312643
875	C	0.88543	0.116586	0.303715
876	C	0.862301	0.099733	0.005692
877	N	0.872266	0.113007	0.047917
878	C	0.902045	0.140957	0.057888
879	H	0.878753	0.110216	0.270595
880	N	0.909359	0.153823	0.102393
881	O	0.887328	0.159743	0.117039
882	O	0.910568	0.132974	0.128431
883	C	0.994332	0.249823	0.684622
884	C	0.975077	0.214118	0.685209
885	C	0.939836	0.195559	0.689434
886	C	0.92154	0.212972	0.357458
887	C	0.939316	0.248745	0.357258
888	C	0.974698	0.265925	0.352734
889	H	0.986555	0.200303	0.681879
890	N	0.887308	0.19544	0.354867
891	C	0.530485	0.26774	0.679803
892	C	0.550007	0.251497	0.346457
893	C	0.583774	0.266887	0.331912
894	C	0.59978	0.301272	0.319071
895	C	0.584366	0.320502	0.663712
896	C	0.550245	0.30336	0.676792
897	N	0.629889	0.317012	0.297323
898	H	0.540068	0.317892	0.684436
899	H	0.641296	0.305487	0.287657
900	H	0.635718	0.33711	0.613553
901	H	0.874184	0.20605	0.350374
902	H	0.87464	0.171529	0.685402
903	H	0.986144	0.291322	0.35136
904	H	0.539493	0.227106	0.356
905	C	0.771527	0.251107	0.681617
906	C	0.807324	0.267925	0.68354
907	C	0.826564	0.253145	0.670433
908	C	0.809072	0.218915	0.323863
909	C	0.774175	0.199099	0.332702
910	C	0.756191	0.215586	0.343693
911	H	0.820607	0.292062	0.694345
912	N	0.824765	0.204803	0.301406
913	C	0.752579	0.26826	0.686735
914	C	0.768264	0.303822	0.356725
915	C	0.750866	0.321515	0.363426
916	C	0.715087	0.303352	0.36344
917	C	0.69789	0.267772	0.691825
918	C	0.716827	0.251502	0.686128
919	N	0.697379	0.319927	0.363921
920	H	0.703365	0.226289	0.681577
921	H	0.707685	0.343717	0.366634
922	H	0.673717	0.309072	0.69152
923	H	0.811626	0.183755	0.285885
924	H	0.847154	0.218236	0.623069
925	H	0.731287	0.200579	0.349655
926	H	0.793593	0.31815	0.354555
927	C	0.773277	0.02796	0.680441
928	C	0.757285	0.047604	0.677772
929	C	0.774353	0.081905	0.665604
930	C	0.808881	0.097297	0.320462
931	C	0.827197	0.081011	0.331838
932	C	0.809015	0.047257	0.346148
933	H	0.732528	0.037212	0.685348
934	N	0.823339	0.127322	0.298522
935	C	0.755126	0.491745	0.682404
936	C	0.719472	0.471965	0.345358
937	C	0.702169	0.43677	0.339312
938	C	0.721366	0.4207	0.332697
939	C	0.756089	0.438055	0.676544
940	C	0.771682	0.472657	0.686012
941	N	0.706469	0.38939	0.314361
942	H	0.796327	0.483872	0.694385
943	H	0.684367	0.379667	0.301573
944	H	0.719173	0.379437	0.636854
945	H	0.84573	0.137739	0.286658
946	H	0.8094	0.134816	0.617622
947	H	0.823049	0.03645	0.3531
948	H	0.705087	0.482937	0.347166
949	C	0.662343	0.249028	0.355847
950	N	0.649946	0.247021	0.64661
951	C	0.620127	0.24489	0.63684
952	C	0.602451	0.25032	0.338549
953	N	0.614544	0.252015	0.381227
954	C	0.642203	0.249742	0.39178
955	H	0.614514	0.246169	0.603644
956	N	0.653844	0.25391	0.436839
957	O	0.658714	0.281115	0.453113
958	O	0.632526	0.230713	0.461085
959	C	0.772341	0.419722	0.354233
960	N	0.778785	0.404087	0.653003
961	C	0.779789	0.37521	0.656879
962	C	0.769075	0.357055	0.364613
963	N	0.762937	0.372717	0.399264
964	C	0.765584	0.403455	0.396962
965	H	0.78134	0.364082	0.627725
966	N	0.755576	0.415485	0.434275
967	O	0.725832	0.395132	0.445028
968	O	0.773828	0.419197	0.467841
969	C	0.605278	0.35502	0.341356
970	N	0.615919	0.378212	0.640676
971	C	0.644285	0.40893	0.641968
972	C	0.666906	0.416815	0.345131
973	N	0.656855	0.392932	0.37792
974	C	0.627146	0.363617	0.379158
975	H	0.651454	0.42319	0.613214
976	N	0.620472	0.340842	0.414972
977	O	0.643068	0.333367	0.417767
978	O	0.619597	0.353845	0.45196
979	C	0.86111	0.268335	0.348454
980	N	0.883893	0.276225	0.647712
981	C	0.914093	0.27784	0.651663
982	C	0.921676	0.266717	0.358902
983	N	0.898855	0.258612	0.392862
984	C	0.870178	0.260287	0.390681
985	H	0.927527	0.280735	0.62278
986	N	0.847468	0.248131	0.427282
987	O	0.838663	0.218136	0.435489
988	O	0.861051	0.264922	0.462313
989	C	0.760522	0.102692	0.342445
990	N	0.746731	0.111427	0.641164
991	C	0.744295	0.139741	0.640092
992	C	0.760339	0.164281	0.340814
993	N	0.775404	0.156072	0.374064
994	C	0.775096	0.126518	0.3779
995	H	0.736185	0.145383	0.610962
996	N	0.792388	0.121647	0.413843
997	O	0.822481	0.144311	0.414046
998	O	0.779821	0.122684	0.451122
999	C	0.923088	0.160033	0.354843
1000	N	0.913021	0.146654	0.645976
1001	C	0.88543	0.116586	0.637047
1002	C	0.862301	0.099733	0.339023
1003	N	0.872266	0.113007	0.38125
1004	C	0.902045	0.140957	0.391224
1005	H	0.878753	0.110216	0.603929
1006	N	0.909359	0.153823	0.435726
1007	O	0.887328	0.159743	0.450373
1008	O	0.910568	0.132974	0.461764
1009	C	0.994332	0.249823	0.017954
1010	C	0.975077	0.214118	0.01854
1011	C	0.939836	0.195559	0.022766
1012	C	0.92154	0.212972	0.690791
1013	C	0.939316	0.248745	0.690594
1014	C	0.974698	0.265925	0.686067
1015	H	0.986555	0.200303	0.015212
1016	N	0.887308	0.19544	0.6882
1017	C	0.530485	0.26774	0.013134
1018	C	0.550007	0.251497	0.67979
1019	C	0.583774	0.266887	0.665245
1020	C	0.59978	0.301272	0.652406
1021	C	0.584366	0.320502	0.997045
1022	C	0.550245	0.30336	0.010123
1023	N	0.629889	0.317012	0.630658
1024	H	0.540068	0.317892	0.017767
1025	H	0.641296	0.305487	0.62099
1026	H	0.635718	0.33711	0.946889
1027	H	0.874184	0.20605	0.68371
1028	H	0.87464	0.171529	0.018733
1029	H	0.986144	0.291322	0.684693
1030	H	0.539493	0.227106	0.689332
1031	C	0.771527	0.251107	0.01495
1032	C	0.807324	0.267925	0.016872
1033	C	0.826564	0.253145	0.003766
1034	C	0.809072	0.218915	0.657198
1035	C	0.774175	0.199099	0.666035
1036	C	0.756191	0.215586	0.677026
1037	H	0.820607	0.292062	0.027676
1038	N	0.824765	0.204803	0.634738
1039	C	0.752579	0.26826	0.020068
1040	C	0.768264	0.303822	0.690058
1041	C	0.750866	0.321515	0.696759
1042	C	0.715087	0.303352	0.696773
1043	C	0.69789	0.267772	0.025156
1044	C	0.716827	0.251502	0.01946
1045	N	0.697379	0.319927	0.697254
1046	H	0.703365	0.226289	0.01491
1047	H	0.707685	0.343717	0.699971
1048	H	0.673717	0.309072	0.024852
1049	H	0.811626	0.183755	0.61922
1050	H	0.847154	0.218236	0.956402
1051	H	0.731287	0.200579	0.682988
1052	H	0.793593	0.31815	0.687888
1053	C	0.773277	0.02796	0.013775
1054	C	0.757285	0.047604	0.011105
1055	C	0.774353	0.081905	0.998937
1056	C	0.808881	0.097297	0.653796
1057	C	0.827197	0.081011	0.66517
1058	C	0.809015	0.047257	0.679481
1059	H	0.732528	0.037212	0.018679
1060	N	0.823339	0.127322	0.631855
1061	C	0.755126	0.491745	0.015737
1062	C	0.719472	0.471965	0.678694
1063	C	0.702169	0.43677	0.672644
1064	C	0.721366	0.4207	0.666032
1065	C	0.756089	0.438055	0.009876
1066	C	0.771682	0.472657	0.019346
1067	N	0.706469	0.38939	0.647695
1068	H	0.796327	0.483872	0.027719
1069	H	0.684367	0.379667	0.634907
1070	H	0.719173	0.379437	0.97019
1071	H	0.84573	0.137739	0.619993
1072	H	0.8094	0.134816	0.950955
1073	H	0.823049	0.03645	0.686433
1074	H	0.705087	0.482937	0.680498
1075	C	0.662343	0.249028	0.689183
1076	N	0.649946	0.247021	0.979943
1077	C	0.620127	0.24489	0.970177
1078	C	0.602451	0.25032	0.671881
1079	N	0.614544	0.252015	0.714559
1080	C	0.642203	0.249742	0.725113
1081	H	0.614514	0.246169	0.93698
1082	N	0.653844	0.25391	0.770175
1083	O	0.658714	0.281115	0.786449
1084	O	0.632526	0.230713	0.794418
1085	C	0.772341	0.419722	0.687566
1086	N	0.778785	0.404087	0.986336
1087	C	0.779789	0.37521	0.990215
1088	C	0.769075	0.357055	0.697949
1089	N	0.762937	0.372717	0.732597
1090	C	0.765584	0.403455	0.730294
1091	H	0.78134	0.364082	0.961058
1092	N	0.755576	0.415485	0.767608
1093	O	0.725832	0.395132	0.778361
1094	O	0.773828	0.419197	0.801177
1095	C	0.605278	0.35502	0.674689
1096	N	0.615919	0.378212	0.974012
1097	C	0.644285	0.40893	0.975301
1098	C	0.666906	0.416815	0.678467
1099	N	0.656855	0.392932	0.711253
1100	C	0.627146	0.363617	0.712491
1101	H	0.651454	0.42319	0.946547
1102	N	0.620472	0.340842	0.748308
1103	O	0.643068	0.333367	0.751099
1104	O	0.619597	0.353845	0.785293
1105	C	0.86111	0.268335	0.681787
1106	N	0.883893	0.276225	0.981049
1107	C	0.914093	0.27784	0.984996
1108	C	0.921676	0.266717	0.692239
1109	N	0.898855	0.258612	0.726195
1110	C	0.870178	0.260287	0.724014
1111	H	0.927527	0.280735	0.956113
1112	N	0.847468	0.248131	0.760615
1113	O	0.838663	0.218136	0.768822
1114	O	0.861051	0.264922	0.795646
1115	C	0.760522	0.102692	0.675781
1116	N	0.746731	0.111427	0.974497
1117	C	0.744295	0.139741	0.973425
1118	C	0.760339	0.164281	0.674147
1119	N	0.775404	0.156072	0.707397
1120	C	0.775096	0.126518	0.711236
1121	H	0.736185	0.145383	0.944298
1122	N	0.792388	0.121647	0.747179
1123	O	0.822481	0.144311	0.747379
1124	O	0.779821	0.122684	0.784455
1125	C	0.923088	0.160033	0.688176
1126	N	0.913021	0.146654	0.979309
1127	C	0.88543	0.116586	0.970383
1128	C	0.862301	0.099733	0.672356
1129	N	0.872266	0.113007	0.714587
1130	C	0.902045	0.140957	0.724557
1131	H	0.878753	0.110216	0.937262
1132	N	0.909359	0.153823	0.769059
1133	O	0.887328	0.159743	0.783706
1134	O	0.910568	0.132974	0.795097
1135	C	0.994333	0.749824	0.351289
1136	C	0.975077	0.714119	0.351876
1137	C	0.939836	0.695559	0.356101
1138	C	0.921538	0.712972	0.024124
1139	C	0.939316	0.748744	0.023925
1140	C	0.974698	0.765924	0.019399
1141	H	0.986556	0.700304	0.348546
1142	N	0.887306	0.695439	0.021533
1143	C	0.530486	0.767742	0.346467
1144	C	0.550008	0.751499	0.013124
1145	C	0.583774	0.766887	0.998581
1146	C	0.59978	0.801274	0.985739
1147	C	0.584366	0.820502	0.330377
1148	C	0.550246	0.803362	0.343456
1149	N	0.629889	0.817012	0.963991
1150	H	0.540067	0.817892	0.351103
1151	H	0.641295	0.805487	0.954323
1152	H	0.635719	0.837112	0.280221
1153	H	0.874184	0.706049	0.017041
1154	H	0.874641	0.671529	0.352066
1155	H	0.986143	0.791322	0.018025
1156	H	0.539494	0.727107	0.022665
1157	C	0.771527	0.751107	0.348285
1158	C	0.807325	0.767927	0.350204
1159	C	0.826565	0.753147	0.337099
1160	C	0.809072	0.718914	0.99053
1161	C	0.774176	0.699099	0.999371
1162	C	0.756192	0.715587	0.010359
1163	H	0.820605	0.792062	0.361008
1164	N	0.824764	0.704802	0.968074
1165	C	0.752579	0.768259	0.353402
1166	C	0.768264	0.803822	0.02339
1167	C	0.750866	0.821514	0.03009
1168	C	0.715088	0.803354	0.030105
1169	C	0.697891	0.767774	0.358489
1170	C	0.716827	0.751502	0.352795
1171	N	0.697379	0.819927	0.030587
1172	H	0.703366	0.726289	0.348244
1173	H	0.707682	0.843717	0.0333
1174	H	0.673718	0.809074	0.358183
1175	H	0.811625	0.683754	0.952553
1176	H	0.847155	0.718237	0.289734
1177	H	0.731288	0.700579	0.016321
1178	H	0.793593	0.818149	0.021222
1179	C	0.773277	0.52796	0.347108
1180	C	0.757286	0.547605	0.344439
1181	C	0.774351	0.581904	0.33227
1182	C	0.808879	0.597297	0.987129
1183	C	0.827198	0.581012	0.998506
1184	C	0.809015	0.547257	0.012813
1185	H	0.732526	0.537212	0.352012
1186	N	0.823339	0.627322	0.965192
1187	C	0.755126	0.991744	0.349071
1188	C	0.719472	0.971964	0.012025
1189	C	0.702169	0.936769	0.005981
1190	C	0.721367	0.920702	0.999364
1191	C	0.756089	0.938054	0.343208
1192	C	0.771682	0.972657	0.35268
1193	N	0.70647	0.889392	0.981028
1194	H	0.796327	0.983872	0.361052
1195	H	0.684367	0.879667	0.96824
1196	H	0.719173	0.879437	0.30352
1197	H	0.84573	0.637739	0.953326
1198	H	0.8094	0.634817	0.284288
1199	H	0.823049	0.53645	0.019767
1200	H	0.705086	0.982937	0.01383
1201	C	0.662342	0.749027	0.022515
1202	N	0.649947	0.747022	0.313276
1203	C	0.620127	0.744889	0.303507
1204	C	0.602449	0.750319	0.005218
1205	N	0.614543	0.752017	0.047892
1206	C	0.642203	0.749742	0.058445
1207	H	0.614514	0.746169	0.270311
1208	N	0.653845	0.753912	0.103506
1209	O	0.658712	0.781114	0.11978
1210	O	0.632527	0.730714	0.127752
1211	C	0.772342	0.919724	0.020899
1212	N	0.778786	0.904089	0.319667
1213	C	0.779789	0.875209	0.323546
1214	C	0.769075	0.857054	0.031281
1215	N	0.762937	0.872717	0.065928
1216	C	0.765582	0.903454	0.063628
1217	H	0.781341	0.864084	0.294391
1218	N	0.755574	0.915487	0.10094
1219	O	0.725831	0.895132	0.111694
1220	O	0.773825	0.919197	0.134508
1221	C	0.605277	0.855019	0.008026
1222	N	0.615919	0.878212	0.307344
1223	C	0.644287	0.908932	0.308635
1224	C	0.666905	0.916814	0.011798
1225	N	0.656856	0.892934	0.044585
1226	C	0.627146	0.863617	0.045823
1227	H	0.651453	0.923189	0.27988
1228	N	0.62047	0.840842	0.08164
1229	O	0.643068	0.833367	0.084432
1230	O	0.619597	0.853844	0.118625
1231	C	0.861111	0.768337	0.015119
1232	N	0.883893	0.776224	0.31438
1233	C	0.914094	0.777842	0.318329
1234	C	0.921674	0.766717	0.02557
1235	N	0.898855	0.758612	0.059527
1236	C	0.870178	0.760287	0.057347
1237	H	0.927526	0.780734	0.289446
1238	N	0.847468	0.748132	0.093949
1239	O	0.838663	0.718137	0.102154
1240	O	0.861051	0.764922	0.128978
1241	C	0.760522	0.602692	0.009112
1242	N	0.746731	0.611427	0.307828
1243	C	0.744296	0.639742	0.306758
1244	C	0.760339	0.664282	0.00748
1245	N	0.775404	0.656072	0.040729
1246	C	0.775095	0.626517	0.044567
1247	H	0.736184	0.645382	0.277629
1248	N	0.792388	0.621647	0.08051
1249	O	0.822481	0.644312	0.080713
1250	O	0.779822	0.622684	0.117789
1251	C	0.923088	0.660032	0.021508
1252	N	0.913022	0.646654	0.312643
1253	C	0.885431	0.616587	0.303715
1254	C	0.8623	0.599732	0.005692
1255	N	0.872265	0.613007	0.047917
1256	C	0.902045	0.640957	0.057888
1257	H	0.878751	0.610217	0.270595
1258	N	0.909359	0.653822	0.102393
1259	O	0.887327	0.659744	0.117039
1260	O	0.910568	0.632974	0.128431
1261	C	0.994333	0.749824	0.684622
1262	C	0.975077	0.714119	0.685209
1263	C	0.939836	0.695559	0.689434
1264	C	0.921538	0.712972	0.357458
1265	C	0.939316	0.748744	0.357258
1266	C	0.974698	0.765924	0.352734
1267	H	0.986556	0.700304	0.681879
1268	N	0.887306	0.695439	0.354867
1269	C	0.530486	0.767742	0.679803
1270	C	0.550008	0.751499	0.346457
1271	C	0.583774	0.766887	0.331913
1272	C	0.59978	0.801274	0.319071
1273	C	0.584366	0.820502	0.663712
1274	C	0.550246	0.803362	0.676792
1275	N	0.629889	0.817012	0.297323
1276	H	0.540067	0.817892	0.684436
1277	H	0.641295	0.805487	0.287657
1278	H	0.635719	0.837112	0.613556
1279	H	0.874184	0.706049	0.350374
1280	H	0.874641	0.671529	0.685399
1281	H	0.986143	0.791322	0.35136
1282	H	0.539494	0.727107	0.356
1283	C	0.771527	0.751107	0.681617
1284	C	0.807325	0.767927	0.68354
1285	C	0.826565	0.753147	0.670433
1286	C	0.809072	0.718914	0.323863
1287	C	0.774176	0.699099	0.332702
1288	C	0.756192	0.715587	0.343693
1289	H	0.820605	0.792062	0.694345
1290	N	0.824764	0.704802	0.301406
1291	C	0.752579	0.768259	0.686735
1292	C	0.768264	0.803822	0.356725
1293	C	0.750866	0.821514	0.363423
1294	C	0.715088	0.803354	0.36344
1295	C	0.697891	0.767774	0.691825
1296	C	0.716827	0.751502	0.686128
1297	N	0.697379	0.819927	0.363921
1298	H	0.703366	0.726289	0.681577
1299	H	0.707682	0.843717	0.366634
1300	H	0.673718	0.809074	0.69152
1301	H	0.811625	0.683754	0.285885
1302	H	0.847155	0.718237	0.623069
1303	H	0.731288	0.700579	0.349655
1304	H	0.793593	0.818149	0.354555
1305	C	0.773277	0.52796	0.680441
1306	C	0.757286	0.547605	0.677772
1307	C	0.774351	0.581904	0.665604
1308	C	0.808879	0.597297	0.320461
1309	C	0.827198	0.581012	0.331838
1310	C	0.809015	0.547257	0.346148
1311	H	0.732526	0.537212	0.685348
1312	N	0.823339	0.627322	0.298522
1313	C	0.755126	0.991744	0.682404
1314	C	0.719472	0.971964	0.345358
1315	C	0.702169	0.936769	0.339312
1316	C	0.721367	0.920702	0.332696
1317	C	0.756089	0.938054	0.676544
1318	C	0.771682	0.972657	0.686012
1319	N	0.70647	0.889392	0.31436
1320	H	0.796327	0.983872	0.694385
1321	H	0.684367	0.879667	0.301572
1322	H	0.719173	0.879437	0.636854
1323	H	0.84573	0.637739	0.286658
1324	H	0.8094	0.634817	0.617622
1325	H	0.823049	0.53645	0.3531
1326	H	0.705086	0.982937	0.347166
1327	C	0.662342	0.749027	0.355847
1328	N	0.649947	0.747022	0.64661
1329	C	0.620127	0.744889	0.63684
1330	C	0.602449	0.750319	0.338549
1331	N	0.614543	0.752017	0.381227
1332	C	0.642203	0.749742	0.39178
1333	H	0.614514	0.746169	0.603644
1334	N	0.653845	0.753912	0.436839
1335	O	0.658712	0.781114	0.453113
1336	O	0.632527	0.730714	0.461085
1337	C	0.772342	0.919724	0.354233
1338	N	0.778786	0.904089	0.653003
1339	C	0.779789	0.875209	0.656879
1340	C	0.769075	0.857054	0.364613
1341	N	0.762937	0.872717	0.399261
1342	C	0.765582	0.903454	0.396962
1343	H	0.781341	0.864084	0.627725
1344	N	0.755574	0.915487	0.434275
1345	O	0.725831	0.895132	0.445028
1346	O	0.773825	0.919197	0.467841
1347	C	0.605277	0.855019	0.341356
1348	N	0.615919	0.878212	0.640679
1349	C	0.644287	0.908932	0.641968
1350	C	0.666905	0.916814	0.345131
1351	N	0.656856	0.892934	0.37792
1352	C	0.627146	0.863617	0.379158
1353	H	0.651453	0.923189	0.613214
1354	N	0.62047	0.840842	0.414972
1355	O	0.643068	0.833367	0.417767
1356	O	0.619597	0.853844	0.45196
1357	C	0.861111	0.768337	0.348454
1358	N	0.883893	0.776224	0.647712
1359	C	0.914094	0.777842	0.651663
1360	C	0.921674	0.766717	0.358902
1361	N	0.898855	0.758612	0.392862
1362	C	0.870178	0.760287	0.390681
1363	H	0.927526	0.780734	0.62278
1364	N	0.847468	0.748132	0.427282
1365	O	0.838663	0.718137	0.435489
1366	O	0.861051	0.764922	0.462313
1367	C	0.760522	0.602692	0.342445
1368	N	0.746731	0.611427	0.641161
1369	C	0.744296	0.639742	0.640092
1370	C	0.760339	0.664282	0.340814
1371	N	0.775404	0.656072	0.374064
1372	C	0.775095	0.626517	0.3779
1373	H	0.736184	0.645382	0.610962
1374	N	0.792388	0.621647	0.413843
1375	O	0.822481	0.644312	0.414046
1376	O	0.779822	0.622684	0.451122
1377	C	0.923088	0.660032	0.354843
1378	N	0.913022	0.646654	0.645976
1379	C	0.885431	0.616587	0.637047
1380	C	0.8623	0.599732	0.339023
1381	N	0.872265	0.613007	0.38125
1382	C	0.902045	0.640957	0.391224
1383	H	0.878751	0.610217	0.603929
1384	N	0.909359	0.653822	0.435726
1385	O	0.887327	0.659744	0.450373
1386	O	0.910568	0.632974	0.461764
1387	C	0.994333	0.749824	0.017954
1388	C	0.975077	0.714119	0.01854
1389	C	0.939836	0.695559	0.022766
1390	C	0.921538	0.712972	0.690791
1391	C	0.939316	0.748744	0.690594
1392	C	0.974698	0.765924	0.686067
1393	H	0.986556	0.700304	0.015212
1394	N	0.887306	0.695439	0.6882
1395	C	0.530486	0.767742	0.013134
1396	C	0.550008	0.751499	0.67979
1397	C	0.583774	0.766887	0.665245
1398	C	0.59978	0.801274	0.652406
1399	C	0.584366	0.820502	0.997045
1400	C	0.550246	0.803362	0.010123
1401	N	0.629889	0.817012	0.630658
1402	H	0.540067	0.817892	0.017767
1403	H	0.641295	0.805487	0.62099
1404	H	0.635719	0.837112	0.946889
1405	H	0.874184	0.706049	0.68371
1406	H	0.874641	0.671529	0.018733
1407	H	0.986143	0.791322	0.684693
1408	H	0.539494	0.727107	0.689332
1409	C	0.771527	0.751107	0.01495
1410	C	0.807325	0.767927	0.016872
1411	C	0.826565	0.753147	0.003766
1412	C	0.809072	0.718914	0.657198
1413	C	0.774176	0.699099	0.666035
1414	C	0.756192	0.715587	0.677026
1415	H	0.820605	0.792062	0.027676
1416	N	0.824764	0.704802	0.634738
1417	C	0.752579	0.768259	0.020068
1418	C	0.768264	0.803822	0.690058
1419	C	0.750866	0.821514	0.696759
1420	C	0.715088	0.803354	0.696773
1421	C	0.697891	0.767774	0.025156
1422	C	0.716827	0.751502	0.01946
1423	N	0.697379	0.819927	0.697254
1424	H	0.703366	0.726289	0.01491
1425	H	0.707682	0.843717	0.699967
1426	H	0.673718	0.809074	0.024851
1427	H	0.811625	0.683754	0.61922
1428	H	0.847155	0.718237	0.956402
1429	H	0.731288	0.700579	0.682988
1430	H	0.793593	0.818149	0.687888
1431	C	0.773277	0.52796	0.013775
1432	C	0.757286	0.547605	0.011105
1433	C	0.774351	0.581904	0.998937
1434	C	0.808879	0.597297	0.653796
1435	C	0.827198	0.581012	0.66517
1436	C	0.809015	0.547257	0.679481
1437	H	0.732526	0.537212	0.018679
1438	N	0.823339	0.627322	0.631855
1439	C	0.755126	0.991744	0.015737
1440	C	0.719472	0.971964	0.678694
1441	C	0.702169	0.936769	0.672644
1442	C	0.721367	0.920702	0.666032
1443	C	0.756089	0.938054	0.009875
1444	C	0.771682	0.972657	0.019346
1445	N	0.70647	0.889392	0.647692
1446	H	0.796327	0.983872	0.027719
1447	H	0.684367	0.879667	0.634907
1448	H	0.719173	0.879437	0.970187
1449	H	0.84573	0.637739	0.619993
1450	H	0.8094	0.634817	0.950955
1451	H	0.823049	0.53645	0.686433
1452	H	0.705086	0.982937	0.680498
1453	C	0.662342	0.749027	0.689183
1454	N	0.649947	0.747022	0.979943
1455	C	0.620127	0.744889	0.970177
1456	C	0.602449	0.750319	0.671881
1457	N	0.614543	0.752017	0.714559
1458	C	0.642203	0.749742	0.725113
1459	H	0.614514	0.746169	0.93698
1460	N	0.653845	0.753912	0.770175
1461	O	0.658712	0.781114	0.786449
1462	O	0.632527	0.730714	0.794418
1463	C	0.772342	0.919724	0.687566
1464	N	0.778786	0.904089	0.986336
1465	C	0.779789	0.875209	0.990212
1466	C	0.769075	0.857054	0.697949
1467	N	0.762937	0.872717	0.732597
1468	C	0.765582	0.903454	0.730294
1469	H	0.781341	0.864084	0.961058
1470	N	0.755574	0.915487	0.767608
1471	O	0.725831	0.895132	0.778361
1472	O	0.773825	0.919197	0.801177
1473	C	0.605277	0.855019	0.674689
1474	N	0.615919	0.878212	0.974012
1475	C	0.644287	0.908932	0.975301
1476	C	0.666905	0.916814	0.678464
1477	N	0.656856	0.892934	0.711253
1478	C	0.627146	0.863617	0.712491
1479	H	0.651453	0.923189	0.946547
1480	N	0.62047	0.840842	0.748308
1481	O	0.643068	0.833367	0.751099
1482	O	0.619597	0.853844	0.785293
1483	C	0.861111	0.768337	0.681787
1484	N	0.883893	0.776224	0.981049
1485	C	0.914094	0.777842	0.984996
1486	C	0.921674	0.766717	0.692239
1487	N	0.898855	0.758612	0.726195
1488	C	0.870178	0.760287	0.724014
1489	H	0.927526	0.780734	0.956113
1490	N	0.847468	0.748132	0.760615
1491	O	0.838663	0.718137	0.768822
1492	O	0.861051	0.764922	0.795646
1493	C	0.760522	0.602692	0.675781
1494	N	0.746731	0.611427	0.974497
1495	C	0.744296	0.639742	0.973425
1496	C	0.760339	0.664282	0.674147
1497	N	0.775404	0.656072	0.707397
1498	C	0.775095	0.626517	0.711236
1499	H	0.736184	0.645382	0.944298
1500	N	0.792388	0.621647	0.747179
1501	O	0.822481	0.644312	0.747379
1502	O	0.779822	0.622684	0.784455
1503	C	0.923088	0.660032	0.688176
1504	N	0.913022	0.646654	0.979309
1505	C	0.885431	0.616587	0.970383
1506	C	0.8623	0.599732	0.672356
1507	N	0.872265	0.613007	0.714587
1508	C	0.902045	0.640957	0.724557
1509	H	0.878751	0.610217	0.937262
1510	N	0.909359	0.653822	0.769059
1511	O	0.887327	0.659744	0.783706
1512	O	0.910568	0.632974	0.795097
