data_C504H288N144O72_2018-02-15_10:32:43
#******************************************
#
# CIF file created by Zeo++
# Zeo++ is an open source package to
# analyze microporous materials
#
#*******************************************

_cell_length_a		43.8377   
_cell_length_b		43.8376   
_cell_length_c		30.0554   
_cell_angle_alpha		90   
_cell_angle_beta		90   
_cell_angle_gamma		120   

_symmetry_space_group_name_H-M		'P1'
_symmetry_Int_Tables_number		1
_symmetry_cell_setting		Monoclinic

loop_
_symmetry_equiv_pos_as_xyz
'+x,+y,+z'

loop_
_atom_site_label
_atom_site_type_symbol
_atom_site_fract_x
_atom_site_fract_y
_atom_site_fract_z
1	C	0.170493	0.367427	0.034249
2	C	0.136299	0.337512	0.034013
3	C	0.130266	0.302606	0.03424
4	C	0.160184	0.298331	0.034012
5	C	0.195091	0.327205	0.367601
6	C	0.199371	0.361401	0.034078
7	H	0.15629	0.273392	0.031586
8	H	0.224309	0.382444	0.031618
9	H	0.115255	0.341408	0.031592
10	C	0.175467	0.401959	0.030838
11	C	0.224646	0.322227	0.364177
12	C	0.095735	0.273052	0.030805
13	O	0.256705	0.35054	0.021999
14	O	0.147174	0.405716	0.021901
15	O	0.091993	0.241	0.021923
16	C	0.316593	0.128179	0.960296
17	C	0.353585	0.150813	0.959813
18	C	0.369528	0.187964	0.960252
19	C	0.346879	0.202308	0.95984
20	C	0.309727	0.181106	0.29358
21	C	0.295381	0.144114	0.95984
22	H	0.357842	0.228949	0.962731
23	H	0.26874	0.128444	0.962731
24	H	0.369262	0.139852	0.962751
25	C	0.301973	0.091433	0.967333
26	C	0.287594	0.195716	0.300635
27	C	0.406264	0.210093	0.967329
28	O	0.252464	0.17344	0.97257
29	O	0.324245	0.07857	0.97257
30	O	0.41912	0.245225	0.97259
31	C	0.245181	0.279245	0.026303
32	C	0.244268	0.249726	0.047186
33	C	0.262847	0.233735	0.029015
34	C	0.282252	0.24641	0.322156
35	C	0.285754	0.277767	0.304075
36	C	0.267117	0.293334	0.321751
37	N	0.262772	0.207217	0.052778
38	C	0.24524	0.194498	0.091601
39	C	0.226075	0.209566	0.108789
40	N	0.226611	0.23657	0.086195
41	H	0.246056	0.174424	0.107763
42	H	0.21253	0.200954	0.138027
43	H	0.267685	0.313498	0.304076
44	H	0.299576	0.287871	0.275178
45	N	0.298845	0.230897	0.301465
46	H	0.318369	0.245659	0.28171
47	N	0.223334	0.291201	0.040581
48	H	0.204312	0.275628	0.060382
49	C	0.218459	0.465477	0.026294
50	C	0.247979	0.494085	0.047173
51	C	0.263966	0.028659	0.029011
52	C	0.251308	0.035392	0.32214
53	C	0.219991	0.007518	0.304005
54	C	0.204433	0.473313	0.321673
55	N	0.290465	0.055104	0.052795
56	C	0.303165	0.050293	0.091634
57	C	0.288088	0.516061	0.108826
58	N	0.26111	0.489589	0.086205
59	H	0.323227	0.071186	0.107809
60	H	0.296698	0.511127	0.138065
61	H	0.184229	0.453734	0.304028
62	H	0.209852	0.011247	0.275145
63	N	0.266784	0.067518	0.301499
64	H	0.252043	0.072253	0.281678
65	N	0.206497	0.431674	0.04058
66	H	0.22205	0.428226	0.060415
67	C	0.032217	0.252503	0.026282
68	C	0.003611	0.253415	0.047168
69	C	0.469037	0.234835	0.029003
70	C	0.462313	0.21547	0.32211
71	C	0.490186	0.212024	0.303979
72	C	0.024377	0.230594	0.321706
73	N	0.442593	0.234883	0.052793
74	C	0.447404	0.252385	0.09164
75	C	0.981634	0.271538	0.108832
76	N	0.008108	0.271037	0.086205
77	H	0.426512	0.251551	0.107819
78	H	0.98657	0.285077	0.138075
79	H	0.043966	0.230041	0.303998
80	H	0.486435	0.198153	0.275116
81	N	0.430186	0.198827	0.301468
82	H	0.425451	0.179357	0.281635
83	N	0.066019	0.274359	0.040557
84	H	0.069467	0.293374	0.060368
85	C	0.170493	0.367427	0.367581
86	C	0.136299	0.337512	0.367348
87	C	0.130266	0.302606	0.367574
88	C	0.160184	0.298331	0.367345
89	C	0.195091	0.327205	0.700935
90	C	0.199371	0.361401	0.367411
91	H	0.15629	0.273392	0.364919
92	H	0.224309	0.382444	0.364952
93	H	0.115255	0.341408	0.364926
94	C	0.175467	0.401959	0.36417
95	C	0.224646	0.322227	0.697511
96	C	0.095735	0.273052	0.364137
97	O	0.256705	0.35054	0.355333
98	O	0.147174	0.405716	0.355234
99	O	0.091993	0.241	0.355257
100	C	0.316593	0.128179	0.293627
101	C	0.353585	0.150813	0.293146
102	C	0.369528	0.187964	0.293584
103	C	0.346879	0.202308	0.293172
104	C	0.309727	0.181106	0.626915
105	C	0.295381	0.144114	0.293173
106	H	0.357842	0.228949	0.296065
107	H	0.26874	0.128444	0.296063
108	H	0.369262	0.139852	0.296083
109	C	0.301973	0.091433	0.300664
110	C	0.287594	0.195716	0.633969
111	C	0.406264	0.210093	0.300663
112	O	0.252464	0.17344	0.305902
113	O	0.324245	0.07857	0.305903
114	O	0.41912	0.245225	0.305922
115	C	0.245181	0.279245	0.359636
116	C	0.244268	0.249726	0.38052
117	C	0.262847	0.233735	0.36235
118	C	0.282252	0.24641	0.655489
119	C	0.285754	0.277767	0.637409
120	C	0.267117	0.293334	0.655086
121	N	0.262772	0.207217	0.386113
122	C	0.24524	0.194498	0.424935
123	C	0.226075	0.209566	0.442123
124	N	0.226611	0.23657	0.419528
125	H	0.246056	0.174424	0.441098
126	H	0.21253	0.200954	0.471359
127	H	0.267685	0.313498	0.637409
128	H	0.299576	0.287871	0.608512
129	N	0.298845	0.230897	0.634797
130	H	0.318369	0.245659	0.615044
131	N	0.223334	0.291201	0.373916
132	H	0.204312	0.275628	0.393716
133	C	0.218459	0.465477	0.359629
134	C	0.247979	0.494085	0.380507
135	C	0.263966	0.028659	0.362344
136	C	0.251308	0.035392	0.655476
137	C	0.219991	0.007518	0.637339
138	C	0.204433	0.473313	0.655006
139	N	0.290465	0.055104	0.38613
140	C	0.303165	0.050293	0.424968
141	C	0.288088	0.516061	0.44216
142	N	0.26111	0.489589	0.419538
143	H	0.323227	0.071186	0.441142
144	H	0.296698	0.511127	0.471399
145	H	0.184229	0.453734	0.637362
146	H	0.209852	0.011247	0.608479
147	N	0.266784	0.067518	0.634834
148	H	0.252043	0.072253	0.61501
149	N	0.206497	0.431674	0.373912
150	H	0.22205	0.428226	0.393749
151	C	0.032217	0.252503	0.359616
152	C	0.003611	0.253415	0.3805
153	C	0.469037	0.234835	0.362337
154	C	0.462313	0.21547	0.655442
155	C	0.490186	0.212024	0.637312
156	C	0.024377	0.230594	0.65504
157	N	0.442593	0.234883	0.386127
158	C	0.447404	0.252385	0.424975
159	C	0.981634	0.271538	0.442166
160	N	0.008108	0.271037	0.419538
161	H	0.426512	0.251551	0.441152
162	H	0.98657	0.285077	0.471409
163	H	0.043966	0.230041	0.637332
164	H	0.486435	0.198153	0.608449
165	N	0.430186	0.198827	0.6348
166	H	0.425451	0.179357	0.614967
167	N	0.066019	0.274359	0.373892
168	H	0.069467	0.293374	0.393703
169	C	0.170493	0.367427	0.700915
170	C	0.136299	0.337512	0.700682
171	C	0.130266	0.302606	0.700908
172	C	0.160184	0.298331	0.700679
173	C	0.195091	0.327205	0.034266
174	C	0.199371	0.361401	0.700745
175	H	0.15629	0.273392	0.698253
176	H	0.224309	0.382444	0.698286
177	H	0.115255	0.341408	0.69826
178	C	0.175467	0.401959	0.697505
179	C	0.224646	0.322227	0.030843
180	C	0.095735	0.273052	0.697471
181	O	0.256705	0.35054	0.688668
182	O	0.147174	0.405716	0.688568
183	O	0.091993	0.241	0.688591
184	C	0.316593	0.128179	0.626962
185	C	0.353585	0.150813	0.626479
186	C	0.369528	0.187964	0.626918
187	C	0.346879	0.202308	0.626506
188	C	0.309727	0.181106	0.960249
189	C	0.295381	0.144114	0.626506
190	H	0.357842	0.228949	0.6294
191	H	0.26874	0.128444	0.629397
192	H	0.369262	0.139852	0.629417
193	C	0.301973	0.091433	0.633999
194	C	0.287594	0.195716	0.967303
195	C	0.406264	0.210093	0.633995
196	O	0.252464	0.17344	0.639236
197	O	0.324245	0.07857	0.639236
198	O	0.41912	0.245225	0.639256
199	C	0.245181	0.279245	0.69297
200	C	0.244268	0.249726	0.713854
201	C	0.262847	0.233735	0.695681
202	C	0.282252	0.24641	0.988823
203	C	0.285754	0.277767	0.970743
204	C	0.267117	0.293334	0.98842
205	N	0.262772	0.207217	0.719444
206	C	0.24524	0.194498	0.758269
207	C	0.226075	0.209566	0.775457
208	N	0.226611	0.23657	0.752862
209	H	0.246056	0.174424	0.774429
210	H	0.21253	0.200954	0.804693
211	H	0.267685	0.313498	0.970743
212	H	0.299576	0.287871	0.941846
213	N	0.298845	0.230897	0.968131
214	H	0.318369	0.245659	0.948378
215	N	0.223334	0.291201	0.70725
216	H	0.204312	0.275628	0.72705
217	C	0.218459	0.465477	0.692963
218	C	0.247979	0.494085	0.713841
219	C	0.263966	0.028659	0.695678
220	C	0.251308	0.035392	0.988806
221	C	0.219991	0.007518	0.970673
222	C	0.204433	0.473313	0.988341
223	N	0.290465	0.055104	0.719464
224	C	0.303165	0.050293	0.758302
225	C	0.288088	0.516061	0.775494
226	N	0.26111	0.489589	0.752872
227	H	0.323227	0.071186	0.774476
228	H	0.296698	0.511127	0.804733
229	H	0.184229	0.453734	0.970696
230	H	0.209852	0.011247	0.941813
231	N	0.266784	0.067518	0.968168
232	H	0.252043	0.072253	0.948344
233	N	0.206497	0.431674	0.707247
234	H	0.22205	0.428226	0.727083
235	C	0.032217	0.252503	0.69295
236	C	0.003611	0.253415	0.713834
237	C	0.469037	0.234835	0.695671
238	C	0.462313	0.21547	0.988776
239	C	0.490186	0.212024	0.970647
240	C	0.024377	0.230594	0.988374
241	N	0.442593	0.234883	0.719461
242	C	0.447404	0.252385	0.758309
243	C	0.981634	0.271538	0.7755
244	N	0.008108	0.271037	0.752872
245	H	0.426512	0.251551	0.774486
246	H	0.98657	0.285077	0.804743
247	H	0.043966	0.230041	0.970666
248	H	0.486435	0.198153	0.941783
249	N	0.430186	0.198827	0.968135
250	H	0.425451	0.179357	0.948301
251	N	0.066019	0.274359	0.707223
252	H	0.069467	0.293374	0.727037
253	C	0.170492	0.867428	0.034249
254	C	0.136298	0.837513	0.034013
255	C	0.130267	0.802607	0.03424
256	C	0.160184	0.798332	0.034012
257	C	0.195091	0.827206	0.367601
258	C	0.199371	0.861401	0.034078
259	H	0.156291	0.773393	0.031586
260	H	0.224308	0.882442	0.031618
261	H	0.115254	0.841409	0.031592
262	C	0.175467	0.90196	0.030838
263	C	0.224646	0.822228	0.364177
264	C	0.095735	0.773053	0.030805
265	O	0.256705	0.850541	0.021999
266	O	0.147175	0.905717	0.0219
267	O	0.091993	0.741002	0.021923
268	C	0.316594	0.628178	0.960296
269	C	0.353584	0.650813	0.959813
270	C	0.369526	0.687963	0.960252
271	C	0.346878	0.702308	0.95984
272	C	0.309727	0.681107	0.29358
273	C	0.295381	0.644114	0.95984
274	H	0.357843	0.728949	0.962731
275	H	0.26874	0.628445	0.962731
276	H	0.36926	0.639853	0.962751
277	C	0.301972	0.591434	0.967333
278	C	0.287594	0.695715	0.300635
279	C	0.406264	0.710092	0.967329
280	O	0.252463	0.673439	0.97257
281	O	0.324244	0.578569	0.97257
282	O	0.41912	0.745225	0.97259
283	C	0.245182	0.779246	0.026303
284	C	0.244268	0.749726	0.047186
285	C	0.262847	0.733735	0.029015
286	C	0.282251	0.74641	0.322156
287	C	0.285754	0.777768	0.304075
288	C	0.267117	0.793335	0.321751
289	N	0.262772	0.707218	0.052778
290	C	0.245239	0.694498	0.091601
291	C	0.226075	0.709568	0.108789
292	N	0.22661	0.736569	0.086195
293	H	0.246056	0.674424	0.107763
294	H	0.21253	0.700954	0.138027
295	H	0.267685	0.813499	0.304076
296	H	0.299576	0.787872	0.275178
297	N	0.298845	0.730898	0.301465
298	H	0.318369	0.745659	0.28171
299	N	0.223332	0.791199	0.040581
300	H	0.204312	0.775629	0.060382
301	C	0.218457	0.965475	0.026294
302	C	0.24798	0.994086	0.047173
303	C	0.263967	0.528659	0.029011
304	C	0.251306	0.535392	0.32214
305	C	0.21999	0.507518	0.304005
306	C	0.204433	0.973314	0.321673
307	N	0.290464	0.555105	0.052795
308	C	0.303165	0.550293	0.091634
309	C	0.288089	0.016062	0.108826
310	N	0.261109	0.98959	0.086205
311	H	0.323226	0.571186	0.107809
312	H	0.296699	0.011127	0.138065
313	H	0.184228	0.953735	0.304028
314	H	0.209852	0.511248	0.275145
315	N	0.266784	0.567519	0.301499
316	H	0.252042	0.572253	0.281678
317	N	0.206496	0.931675	0.04058
318	H	0.222048	0.928224	0.060415
319	C	0.032215	0.752502	0.026282
320	C	0.003611	0.753416	0.047168
321	C	0.469037	0.734836	0.029003
322	C	0.462312	0.715471	0.32211
323	C	0.490186	0.712025	0.303979
324	C	0.024378	0.730595	0.321706
325	N	0.442593	0.734883	0.052793
326	C	0.447402	0.752384	0.09164
327	C	0.981635	0.771539	0.108832
328	N	0.008107	0.771036	0.086205
329	H	0.426511	0.751552	0.107819
330	H	0.98657	0.785078	0.138075
331	H	0.043965	0.730042	0.303998
332	H	0.486435	0.698154	0.275116
333	N	0.430186	0.698829	0.301468
334	H	0.425451	0.679358	0.281635
335	N	0.066019	0.77436	0.040557
336	H	0.069465	0.793372	0.060368
337	C	0.170492	0.867428	0.367581
338	C	0.136298	0.837513	0.367348
339	C	0.130267	0.802607	0.367574
340	C	0.160184	0.798332	0.367345
341	C	0.195091	0.827206	0.700932
342	C	0.199371	0.861401	0.367411
343	H	0.156291	0.773393	0.364919
344	H	0.224308	0.882442	0.364952
345	H	0.115254	0.841409	0.364926
346	C	0.175467	0.90196	0.36417
347	C	0.224646	0.822228	0.697511
348	C	0.095735	0.773053	0.364137
349	O	0.256705	0.850541	0.355333
350	O	0.147175	0.905717	0.355234
351	O	0.091993	0.741002	0.355257
352	C	0.316594	0.628178	0.293627
353	C	0.353584	0.650813	0.293146
354	C	0.369526	0.687963	0.293585
355	C	0.346878	0.702308	0.293172
356	C	0.309727	0.681107	0.626915
357	C	0.295381	0.644114	0.293173
358	H	0.357843	0.728949	0.296065
359	H	0.26874	0.628445	0.296064
360	H	0.36926	0.639853	0.296083
361	C	0.301972	0.591434	0.300664
362	C	0.287594	0.695715	0.633969
363	C	0.406264	0.710092	0.300663
364	O	0.252463	0.673439	0.305902
365	O	0.324244	0.578569	0.305903
366	O	0.41912	0.745225	0.305922
367	C	0.245182	0.779246	0.359636
368	C	0.244268	0.749726	0.38052
369	C	0.262847	0.733735	0.36235
370	C	0.282251	0.74641	0.655489
371	C	0.285754	0.777768	0.637409
372	C	0.267117	0.793335	0.655086
373	N	0.262772	0.707218	0.386113
374	C	0.245239	0.694498	0.424935
375	C	0.226075	0.709568	0.442123
376	N	0.22661	0.736569	0.419528
377	H	0.246056	0.674424	0.441098
378	H	0.21253	0.700954	0.471359
379	H	0.267685	0.813499	0.637409
380	H	0.299576	0.787872	0.608512
381	N	0.298845	0.730898	0.634797
382	H	0.318369	0.745659	0.615044
383	N	0.223332	0.791199	0.373916
384	H	0.204312	0.775629	0.393716
385	C	0.218457	0.965475	0.359629
386	C	0.24798	0.994086	0.380507
387	C	0.263967	0.528659	0.362344
388	C	0.251306	0.535392	0.655476
389	C	0.21999	0.507518	0.637339
390	C	0.204433	0.973314	0.655006
391	N	0.290464	0.555105	0.38613
392	C	0.303165	0.550293	0.424968
393	C	0.288089	0.016062	0.44216
394	N	0.261109	0.98959	0.419538
395	H	0.323226	0.571186	0.441142
396	H	0.296699	0.011127	0.471399
397	H	0.184228	0.953735	0.637362
398	H	0.209852	0.511248	0.608479
399	N	0.266784	0.567519	0.634834
400	H	0.252042	0.572253	0.61501
401	N	0.206496	0.931675	0.373912
402	H	0.222048	0.928224	0.393749
403	C	0.032215	0.752502	0.359616
404	C	0.003611	0.753416	0.3805
405	C	0.469037	0.734836	0.362337
406	C	0.462312	0.715471	0.655442
407	C	0.490186	0.712025	0.637312
408	C	0.024378	0.730595	0.65504
409	N	0.442593	0.734883	0.386127
410	C	0.447402	0.752384	0.424975
411	C	0.981635	0.771539	0.442166
412	N	0.008107	0.771036	0.419538
413	H	0.426511	0.751552	0.441152
414	H	0.98657	0.785078	0.471409
415	H	0.043965	0.730042	0.637332
416	H	0.486435	0.698154	0.608449
417	N	0.430186	0.698829	0.6348
418	H	0.425451	0.679358	0.614967
419	N	0.066019	0.77436	0.373892
420	H	0.069465	0.793372	0.393703
421	C	0.170492	0.867428	0.700915
422	C	0.136298	0.837513	0.700682
423	C	0.130267	0.802607	0.700908
424	C	0.160184	0.798332	0.700679
425	C	0.195091	0.827206	0.034266
426	C	0.199371	0.861401	0.700745
427	H	0.156291	0.773393	0.698253
428	H	0.224308	0.882442	0.698286
429	H	0.115254	0.841409	0.69826
430	C	0.175467	0.90196	0.697505
431	C	0.224646	0.822228	0.030843
432	C	0.095735	0.773053	0.697471
433	O	0.256705	0.850541	0.688668
434	O	0.147175	0.905717	0.688568
435	O	0.091993	0.741002	0.688591
436	C	0.316594	0.628178	0.626962
437	C	0.353584	0.650813	0.626479
438	C	0.369526	0.687963	0.626918
439	C	0.346878	0.702308	0.626506
440	C	0.309727	0.681107	0.960249
441	C	0.295381	0.644114	0.626506
442	H	0.357843	0.728949	0.6294
443	H	0.26874	0.628445	0.629397
444	H	0.36926	0.639853	0.629417
445	C	0.301972	0.591434	0.633999
446	C	0.287594	0.695715	0.967303
447	C	0.406264	0.710092	0.633995
448	O	0.252463	0.673439	0.639236
449	O	0.324244	0.578569	0.639236
450	O	0.41912	0.745225	0.639256
451	C	0.245182	0.779246	0.69297
452	C	0.244268	0.749726	0.713854
453	C	0.262847	0.733735	0.695681
454	C	0.282251	0.74641	0.988823
455	C	0.285754	0.777768	0.970743
456	C	0.267117	0.793335	0.98842
457	N	0.262772	0.707218	0.719444
458	C	0.245239	0.694498	0.758269
459	C	0.226075	0.709568	0.775457
460	N	0.22661	0.736569	0.752862
461	H	0.246056	0.674424	0.774429
462	H	0.21253	0.700954	0.804693
463	H	0.267685	0.813499	0.970743
464	H	0.299576	0.787872	0.941846
465	N	0.298845	0.730898	0.968131
466	H	0.318369	0.745659	0.948378
467	N	0.223332	0.791199	0.70725
468	H	0.204312	0.775629	0.72705
469	C	0.218457	0.965475	0.692963
470	C	0.24798	0.994086	0.713841
471	C	0.263967	0.528659	0.695678
472	C	0.251306	0.535392	0.988806
473	C	0.21999	0.507518	0.970673
474	C	0.204433	0.973314	0.988341
475	N	0.290464	0.555105	0.719464
476	C	0.303165	0.550293	0.758302
477	C	0.288089	0.016062	0.775494
478	N	0.261109	0.98959	0.752872
479	H	0.323226	0.571186	0.774476
480	H	0.296699	0.011127	0.804733
481	H	0.184228	0.953735	0.970696
482	H	0.209852	0.511248	0.941813
483	N	0.266784	0.567519	0.968168
484	H	0.252042	0.572253	0.948344
485	N	0.206496	0.931675	0.707247
486	H	0.222048	0.928224	0.727083
487	C	0.032215	0.752502	0.69295
488	C	0.003611	0.753416	0.713834
489	C	0.469037	0.734836	0.695671
490	C	0.462312	0.715471	0.988776
491	C	0.490186	0.712025	0.970647
492	C	0.024378	0.730595	0.988374
493	N	0.442593	0.734883	0.719461
494	C	0.447402	0.752384	0.758309
495	C	0.981635	0.771539	0.7755
496	N	0.008107	0.771036	0.752872
497	H	0.426511	0.751552	0.774486
498	H	0.98657	0.785078	0.804743
499	H	0.043965	0.730042	0.970666
500	H	0.486435	0.698154	0.941783
501	N	0.430186	0.698829	0.968135
502	H	0.425451	0.679358	0.948301
503	N	0.066019	0.77436	0.707223
504	H	0.069465	0.793372	0.727037
505	C	0.670493	0.367427	0.034249
506	C	0.636299	0.337512	0.034013
507	C	0.630267	0.302606	0.03424
508	C	0.660184	0.298331	0.034012
509	C	0.69509	0.327205	0.367601
510	C	0.699372	0.361401	0.034078
511	H	0.65629	0.273392	0.031586
512	H	0.724308	0.382444	0.031618
513	H	0.615255	0.341408	0.031592
514	C	0.675466	0.401959	0.030838
515	C	0.724646	0.322227	0.364177
516	C	0.595736	0.273052	0.030805
517	O	0.756705	0.35054	0.021999
518	O	0.647174	0.405716	0.021901
519	O	0.591991	0.241	0.021923
520	C	0.816595	0.128179	0.960296
521	C	0.853583	0.150813	0.959813
522	C	0.869527	0.187964	0.960252
523	C	0.84688	0.202308	0.95984
524	C	0.809726	0.181106	0.29358
525	C	0.795382	0.144114	0.95984
526	H	0.857843	0.228949	0.962731
527	H	0.768739	0.128444	0.962731
528	H	0.869261	0.139852	0.962751
529	C	0.801972	0.091433	0.967333
530	C	0.787595	0.195716	0.300635
531	C	0.906265	0.210093	0.967329
532	O	0.752464	0.17344	0.97257
533	O	0.824244	0.07857	0.97257
534	O	0.919121	0.245225	0.97259
535	C	0.745181	0.279245	0.026303
536	C	0.744268	0.249726	0.047186
537	C	0.762848	0.233735	0.029015
538	C	0.782252	0.24641	0.322156
539	C	0.785753	0.277767	0.304075
540	C	0.767117	0.293334	0.321751
541	N	0.762772	0.207217	0.052778
542	C	0.745239	0.194498	0.091601
543	C	0.726075	0.209566	0.108789
544	N	0.72661	0.23657	0.086195
545	H	0.746056	0.174424	0.107763
546	H	0.71253	0.200954	0.138027
547	H	0.767684	0.313498	0.304076
548	H	0.799576	0.287871	0.275178
549	N	0.798844	0.230897	0.301465
550	H	0.81837	0.245659	0.28171
551	N	0.723333	0.291201	0.040581
552	H	0.704313	0.275628	0.060382
553	C	0.718459	0.465477	0.026294
554	C	0.747978	0.494085	0.047173
555	C	0.763967	0.028659	0.029011
556	C	0.751306	0.035392	0.32214
557	C	0.71999	0.007518	0.304005
558	C	0.704434	0.473313	0.321673
559	N	0.790464	0.055104	0.052795
560	C	0.803166	0.050293	0.091634
561	C	0.788087	0.516061	0.108826
562	N	0.76111	0.489589	0.086205
563	H	0.823225	0.071186	0.107809
564	H	0.796698	0.511127	0.138065
565	H	0.684229	0.453734	0.304028
566	H	0.709853	0.011247	0.275145
567	N	0.766783	0.067518	0.301499
568	H	0.752042	0.072253	0.281678
569	N	0.706496	0.431674	0.04058
570	H	0.72205	0.428226	0.060415
571	C	0.532217	0.252503	0.026282
572	C	0.503611	0.253415	0.047168
573	C	0.969038	0.234835	0.029003
574	C	0.962312	0.21547	0.32211
575	C	0.990187	0.212024	0.303979
576	C	0.524376	0.230594	0.321706
577	N	0.942592	0.234883	0.052793
578	C	0.947403	0.252385	0.09164
579	C	0.481635	0.271538	0.108832
580	N	0.508109	0.271037	0.086205
581	H	0.92651	0.251551	0.107819
582	H	0.486571	0.285077	0.138075
583	H	0.543966	0.230041	0.303998
584	H	0.986434	0.198153	0.275116
585	N	0.930187	0.198827	0.301468
586	H	0.92545	0.179357	0.281635
587	N	0.566018	0.274359	0.040557
588	H	0.569467	0.293374	0.060368
589	C	0.670493	0.367427	0.367581
590	C	0.636299	0.337512	0.367348
591	C	0.630267	0.302606	0.367574
592	C	0.660184	0.298331	0.367345
593	C	0.69509	0.327205	0.700935
594	C	0.699372	0.361401	0.367411
595	H	0.65629	0.273392	0.364919
596	H	0.724308	0.382444	0.364952
597	H	0.615255	0.341408	0.364926
598	C	0.675466	0.401959	0.36417
599	C	0.724646	0.322227	0.697511
600	C	0.595736	0.273052	0.364137
601	O	0.756705	0.35054	0.355333
602	O	0.647174	0.405716	0.355234
603	O	0.591991	0.241	0.355257
604	C	0.816595	0.128179	0.293627
605	C	0.853583	0.150813	0.293146
606	C	0.869527	0.187964	0.293584
607	C	0.84688	0.202308	0.293172
608	C	0.809726	0.181106	0.626915
609	C	0.795382	0.144114	0.293173
610	H	0.857843	0.228949	0.296065
611	H	0.768739	0.128444	0.296063
612	H	0.869261	0.139852	0.296083
613	C	0.801972	0.091433	0.300664
614	C	0.787595	0.195716	0.633969
615	C	0.906265	0.210093	0.300663
616	O	0.752464	0.17344	0.305902
617	O	0.824244	0.07857	0.305903
618	O	0.919121	0.245225	0.305922
619	C	0.745181	0.279245	0.359636
620	C	0.744268	0.249726	0.38052
621	C	0.762848	0.233735	0.36235
622	C	0.782252	0.24641	0.655489
623	C	0.785753	0.277767	0.637409
624	C	0.767117	0.293334	0.655086
625	N	0.762772	0.207217	0.386113
626	C	0.745239	0.194498	0.424935
627	C	0.726075	0.209566	0.442123
628	N	0.72661	0.23657	0.419528
629	H	0.746056	0.174424	0.441098
630	H	0.71253	0.200954	0.471359
631	H	0.767684	0.313498	0.637409
632	H	0.799576	0.287871	0.608512
633	N	0.798844	0.230897	0.634797
634	H	0.81837	0.245659	0.615044
635	N	0.723333	0.291201	0.373916
636	H	0.704313	0.275628	0.393716
637	C	0.718459	0.465477	0.359629
638	C	0.747978	0.494085	0.380507
639	C	0.763967	0.028659	0.362344
640	C	0.751306	0.035392	0.655476
641	C	0.71999	0.007518	0.637339
642	C	0.704434	0.473313	0.655006
643	N	0.790464	0.055104	0.38613
644	C	0.803166	0.050293	0.424968
645	C	0.788087	0.516061	0.44216
646	N	0.76111	0.489589	0.419538
647	H	0.823225	0.071186	0.441142
648	H	0.796698	0.511127	0.471399
649	H	0.684229	0.453734	0.637362
650	H	0.709853	0.011247	0.608479
651	N	0.766783	0.067518	0.634834
652	H	0.752042	0.072253	0.61501
653	N	0.706496	0.431674	0.373912
654	H	0.72205	0.428226	0.393749
655	C	0.532217	0.252503	0.359616
656	C	0.503611	0.253415	0.3805
657	C	0.969038	0.234835	0.362337
658	C	0.962312	0.21547	0.655442
659	C	0.990187	0.212024	0.637312
660	C	0.524376	0.230594	0.65504
661	N	0.942592	0.234883	0.386127
662	C	0.947403	0.252385	0.424975
663	C	0.481635	0.271538	0.442166
664	N	0.508109	0.271037	0.419538
665	H	0.92651	0.251551	0.441152
666	H	0.486571	0.285077	0.471409
667	H	0.543966	0.230041	0.637332
668	H	0.986434	0.198153	0.608449
669	N	0.930187	0.198827	0.6348
670	H	0.92545	0.179357	0.614967
671	N	0.566018	0.274359	0.373892
672	H	0.569467	0.293374	0.393703
673	C	0.670493	0.367427	0.700915
674	C	0.636299	0.337512	0.700682
675	C	0.630267	0.302606	0.700908
676	C	0.660184	0.298331	0.700679
677	C	0.69509	0.327205	0.034266
678	C	0.699372	0.361401	0.700745
679	H	0.65629	0.273392	0.698253
680	H	0.724308	0.382444	0.698286
681	H	0.615255	0.341408	0.69826
682	C	0.675466	0.401959	0.697505
683	C	0.724646	0.322227	0.030843
684	C	0.595736	0.273052	0.697471
685	O	0.756705	0.35054	0.688668
686	O	0.647174	0.405716	0.688568
687	O	0.591991	0.241	0.688591
688	C	0.816595	0.128179	0.626962
689	C	0.853583	0.150813	0.626479
690	C	0.869527	0.187964	0.626918
691	C	0.84688	0.202308	0.626506
692	C	0.809726	0.181106	0.960249
693	C	0.795382	0.144114	0.626506
694	H	0.857843	0.228949	0.6294
695	H	0.768739	0.128444	0.629397
696	H	0.869261	0.139852	0.629417
697	C	0.801972	0.091433	0.633999
698	C	0.787595	0.195716	0.967303
699	C	0.906265	0.210093	0.633995
700	O	0.752464	0.17344	0.639236
701	O	0.824244	0.07857	0.639236
702	O	0.919121	0.245225	0.639256
703	C	0.745181	0.279245	0.69297
704	C	0.744268	0.249726	0.713854
705	C	0.762848	0.233735	0.695681
706	C	0.782252	0.24641	0.988823
707	C	0.785753	0.277767	0.970743
708	C	0.767117	0.293334	0.98842
709	N	0.762772	0.207217	0.719444
710	C	0.745239	0.194498	0.758269
711	C	0.726075	0.209566	0.775457
712	N	0.72661	0.23657	0.752862
713	H	0.746056	0.174424	0.774429
714	H	0.71253	0.200954	0.804693
715	H	0.767684	0.313498	0.970743
716	H	0.799576	0.287871	0.941846
717	N	0.798844	0.230897	0.968131
718	H	0.81837	0.245659	0.948378
719	N	0.723333	0.291201	0.70725
720	H	0.704313	0.275628	0.72705
721	C	0.718459	0.465477	0.692963
722	C	0.747978	0.494085	0.713841
723	C	0.763967	0.028659	0.695678
724	C	0.751306	0.035392	0.988806
725	C	0.71999	0.007518	0.970673
726	C	0.704434	0.473313	0.988341
727	N	0.790464	0.055104	0.719464
728	C	0.803166	0.050293	0.758302
729	C	0.788087	0.516061	0.775494
730	N	0.76111	0.489589	0.752872
731	H	0.823225	0.071186	0.774476
732	H	0.796698	0.511127	0.804733
733	H	0.684229	0.453734	0.970696
734	H	0.709853	0.011247	0.941813
735	N	0.766783	0.067518	0.968168
736	H	0.752042	0.072253	0.948344
737	N	0.706496	0.431674	0.707247
738	H	0.72205	0.428226	0.727083
739	C	0.532217	0.252503	0.69295
740	C	0.503611	0.253415	0.713834
741	C	0.969038	0.234835	0.695671
742	C	0.962312	0.21547	0.988776
743	C	0.990187	0.212024	0.970647
744	C	0.524376	0.230594	0.988374
745	N	0.942592	0.234883	0.719461
746	C	0.947403	0.252385	0.758309
747	C	0.481635	0.271538	0.7755
748	N	0.508109	0.271037	0.752872
749	H	0.92651	0.251551	0.774486
750	H	0.486571	0.285077	0.804743
751	H	0.543966	0.230041	0.970666
752	H	0.986434	0.198153	0.941783
753	N	0.930187	0.198827	0.968135
754	H	0.92545	0.179357	0.948301
755	N	0.566018	0.274359	0.707223
756	H	0.569467	0.293374	0.727037
757	C	0.670493	0.867428	0.034249
758	C	0.636299	0.837513	0.034013
759	C	0.630265	0.802607	0.03424
760	C	0.660185	0.798332	0.034012
761	C	0.695091	0.827206	0.367601
762	C	0.69937	0.861401	0.034078
763	H	0.65629	0.773393	0.031586
764	H	0.724307	0.882442	0.031618
765	H	0.615255	0.841409	0.031592
766	C	0.675467	0.90196	0.030838
767	C	0.724647	0.822228	0.364177
768	C	0.595735	0.773053	0.030805
769	O	0.756704	0.850541	0.021999
770	O	0.647174	0.905717	0.0219
771	O	0.591993	0.741002	0.021923
772	C	0.816594	0.628178	0.960296
773	C	0.853583	0.650813	0.959813
774	C	0.869526	0.687963	0.960252
775	C	0.846877	0.702308	0.95984
776	C	0.809726	0.681107	0.29358
777	C	0.79538	0.644114	0.95984
778	H	0.857843	0.728949	0.962731
779	H	0.768739	0.628445	0.962731
780	H	0.869261	0.639853	0.962751
781	C	0.801972	0.591434	0.967333
782	C	0.787595	0.695715	0.300635
783	C	0.906265	0.710092	0.967329
784	O	0.752464	0.673439	0.97257
785	O	0.824243	0.578569	0.97257
786	O	0.919121	0.745225	0.97259
787	C	0.745181	0.779246	0.026303
788	C	0.744268	0.749726	0.047186
789	C	0.762845	0.733735	0.029015
790	C	0.782252	0.74641	0.322156
791	C	0.785754	0.777768	0.304075
792	C	0.767117	0.793335	0.321751
793	N	0.762772	0.707218	0.052778
794	C	0.745239	0.694498	0.091601
795	C	0.726075	0.709568	0.108789
796	N	0.72661	0.736569	0.086195
797	H	0.746056	0.674424	0.107763
798	H	0.71253	0.700954	0.138027
799	H	0.767684	0.813499	0.304076
800	H	0.799575	0.787872	0.275178
801	N	0.798845	0.730898	0.301465
802	H	0.818368	0.745659	0.28171
803	N	0.723333	0.791199	0.040581
804	H	0.704313	0.775629	0.060382
805	C	0.718458	0.965475	0.026294
806	C	0.747979	0.994086	0.047173
807	C	0.763967	0.528659	0.029011
808	C	0.751306	0.535392	0.32214
809	C	0.71999	0.507518	0.304005
810	C	0.704433	0.973314	0.321673
811	N	0.790464	0.555105	0.052795
812	C	0.803164	0.550293	0.091634
813	C	0.78809	0.016062	0.108826
814	N	0.76111	0.98959	0.086205
815	H	0.823225	0.571186	0.107809
816	H	0.796698	0.011127	0.138065
817	H	0.684229	0.953735	0.304028
818	H	0.709851	0.511248	0.275145
819	N	0.766784	0.567519	0.301499
820	H	0.752042	0.572253	0.281678
821	N	0.706497	0.931675	0.04058
822	H	0.722049	0.928224	0.060415
823	C	0.532216	0.752502	0.026282
824	C	0.503611	0.753416	0.047168
825	C	0.969036	0.734836	0.029003
826	C	0.962312	0.715471	0.32211
827	C	0.990187	0.712025	0.303979
828	C	0.524377	0.730595	0.321706
829	N	0.942592	0.734883	0.052793
830	C	0.947403	0.752384	0.09164
831	C	0.481635	0.771539	0.108832
832	N	0.508107	0.771036	0.086205
833	H	0.926511	0.751552	0.107819
834	H	0.48657	0.785078	0.138075
835	H	0.543966	0.730042	0.303998
836	H	0.986434	0.698154	0.275116
837	N	0.930185	0.698829	0.301468
838	H	0.92545	0.679358	0.281635
839	N	0.566019	0.77436	0.040557
840	H	0.569465	0.793372	0.060368
841	C	0.670493	0.867428	0.367581
842	C	0.636299	0.837513	0.367348
843	C	0.630265	0.802607	0.367574
844	C	0.660185	0.798332	0.367345
845	C	0.695091	0.827206	0.700932
846	C	0.69937	0.861401	0.367411
847	H	0.65629	0.773393	0.364919
848	H	0.724307	0.882442	0.364952
849	H	0.615255	0.841409	0.364926
850	C	0.675467	0.90196	0.36417
851	C	0.724647	0.822228	0.697511
852	C	0.595735	0.773053	0.364137
853	O	0.756704	0.850541	0.355333
854	O	0.647174	0.905717	0.355234
855	O	0.591993	0.741002	0.355257
856	C	0.816594	0.628178	0.293627
857	C	0.853583	0.650813	0.293146
858	C	0.869526	0.687963	0.293585
859	C	0.846877	0.702308	0.293172
860	C	0.809726	0.681107	0.626915
861	C	0.79538	0.644114	0.293173
862	H	0.857843	0.728949	0.296065
863	H	0.768739	0.628445	0.296064
864	H	0.869261	0.639853	0.296083
865	C	0.801972	0.591434	0.300664
866	C	0.787595	0.695715	0.633969
867	C	0.906265	0.710092	0.300663
868	O	0.752464	0.673439	0.305902
869	O	0.824243	0.578569	0.305903
870	O	0.919121	0.745225	0.305922
871	C	0.745181	0.779246	0.359636
872	C	0.744268	0.749726	0.38052
873	C	0.762845	0.733735	0.36235
874	C	0.782252	0.74641	0.655489
875	C	0.785754	0.777768	0.637409
876	C	0.767117	0.793335	0.655086
877	N	0.762772	0.707218	0.386113
878	C	0.745239	0.694498	0.424935
879	C	0.726075	0.709568	0.442123
880	N	0.72661	0.736569	0.419528
881	H	0.746056	0.674424	0.441098
882	H	0.71253	0.700954	0.471359
883	H	0.767684	0.813499	0.637409
884	H	0.799575	0.787872	0.608512
885	N	0.798845	0.730898	0.634797
886	H	0.818368	0.745659	0.615044
887	N	0.723333	0.791199	0.373916
888	H	0.704313	0.775629	0.393716
889	C	0.718458	0.965475	0.359629
890	C	0.747979	0.994086	0.380507
891	C	0.763967	0.528659	0.362344
892	C	0.751306	0.535392	0.655476
893	C	0.71999	0.507518	0.637339
894	C	0.704433	0.973314	0.655006
895	N	0.790464	0.555105	0.38613
896	C	0.803164	0.550293	0.424968
897	C	0.78809	0.016062	0.44216
898	N	0.76111	0.98959	0.419538
899	H	0.823225	0.571186	0.441142
900	H	0.796698	0.011127	0.471399
901	H	0.684229	0.953735	0.637362
902	H	0.709851	0.511248	0.608479
903	N	0.766784	0.567519	0.634834
904	H	0.752042	0.572253	0.61501
905	N	0.706497	0.931675	0.373912
906	H	0.722049	0.928224	0.393749
907	C	0.532216	0.752502	0.359616
908	C	0.503611	0.753416	0.3805
909	C	0.969036	0.734836	0.362337
910	C	0.962312	0.715471	0.655442
911	C	0.990187	0.712025	0.637312
912	C	0.524377	0.730595	0.65504
913	N	0.942592	0.734883	0.386127
914	C	0.947403	0.752384	0.424975
915	C	0.481635	0.771539	0.442166
916	N	0.508107	0.771036	0.419538
917	H	0.926511	0.751552	0.441152
918	H	0.48657	0.785078	0.471409
919	H	0.543966	0.730042	0.637332
920	H	0.986434	0.698154	0.608449
921	N	0.930185	0.698829	0.6348
922	H	0.92545	0.679358	0.614967
923	N	0.566019	0.77436	0.373892
924	H	0.569465	0.793372	0.393703
925	C	0.670493	0.867428	0.700915
926	C	0.636299	0.837513	0.700682
927	C	0.630265	0.802607	0.700908
928	C	0.660185	0.798332	0.700679
929	C	0.695091	0.827206	0.034266
930	C	0.69937	0.861401	0.700745
931	H	0.65629	0.773393	0.698253
932	H	0.724307	0.882442	0.698286
933	H	0.615255	0.841409	0.69826
934	C	0.675467	0.90196	0.697505
935	C	0.724647	0.822228	0.030843
936	C	0.595735	0.773053	0.697471
937	O	0.756704	0.850541	0.688668
938	O	0.647174	0.905717	0.688568
939	O	0.591993	0.741002	0.688591
940	C	0.816594	0.628178	0.626962
941	C	0.853583	0.650813	0.626479
942	C	0.869526	0.687963	0.626918
943	C	0.846877	0.702308	0.626506
944	C	0.809726	0.681107	0.960249
945	C	0.79538	0.644114	0.626506
946	H	0.857843	0.728949	0.6294
947	H	0.768739	0.628445	0.629397
948	H	0.869261	0.639853	0.629417
949	C	0.801972	0.591434	0.633999
950	C	0.787595	0.695715	0.967303
951	C	0.906265	0.710092	0.633995
952	O	0.752464	0.673439	0.639236
953	O	0.824243	0.578569	0.639236
954	O	0.919121	0.745225	0.639256
955	C	0.745181	0.779246	0.69297
956	C	0.744268	0.749726	0.713854
957	C	0.762845	0.733735	0.695681
958	C	0.782252	0.74641	0.988823
959	C	0.785754	0.777768	0.970743
960	C	0.767117	0.793335	0.98842
961	N	0.762772	0.707218	0.719444
962	C	0.745239	0.694498	0.758269
963	C	0.726075	0.709568	0.775457
964	N	0.72661	0.736569	0.752862
965	H	0.746056	0.674424	0.774429
966	H	0.71253	0.700954	0.804693
967	H	0.767684	0.813499	0.970743
968	H	0.799575	0.787872	0.941846
969	N	0.798845	0.730898	0.968131
970	H	0.818368	0.745659	0.948378
971	N	0.723333	0.791199	0.70725
972	H	0.704313	0.775629	0.72705
973	C	0.718458	0.965475	0.692963
974	C	0.747979	0.994086	0.713841
975	C	0.763967	0.528659	0.695678
976	C	0.751306	0.535392	0.988806
977	C	0.71999	0.507518	0.970673
978	C	0.704433	0.973314	0.988341
979	N	0.790464	0.555105	0.719464
980	C	0.803164	0.550293	0.758302
981	C	0.78809	0.016062	0.775494
982	N	0.76111	0.98959	0.752872
983	H	0.823225	0.571186	0.774476
984	H	0.796698	0.011127	0.804733
985	H	0.684229	0.953735	0.970696
986	H	0.709851	0.511248	0.941813
987	N	0.766784	0.567519	0.968168
988	H	0.752042	0.572253	0.948344
989	N	0.706497	0.931675	0.707247
990	H	0.722049	0.928224	0.727083
991	C	0.532216	0.752502	0.69295
992	C	0.503611	0.753416	0.713834
993	C	0.969036	0.734836	0.695671
994	C	0.962312	0.715471	0.988776
995	C	0.990187	0.712025	0.970647
996	C	0.524377	0.730595	0.988374
997	N	0.942592	0.734883	0.719461
998	C	0.947403	0.752384	0.758309
999	C	0.481635	0.771539	0.7755
1000	N	0.508107	0.771036	0.752872
1001	H	0.926511	0.751552	0.774486
1002	H	0.48657	0.785078	0.804743
1003	H	0.543966	0.730042	0.970666
1004	H	0.986434	0.698154	0.941783
1005	N	0.930185	0.698829	0.968135
1006	H	0.92545	0.679358	0.948301
1007	N	0.566019	0.77436	0.707223
1008	H	0.569465	0.793372	0.727037
