data_C504H288N144O108_2018-02-15_10:32:45
#******************************************
#
# CIF file created by Zeo++
# Zeo++ is an open source package to
# analyze microporous materials
#
#*******************************************

_cell_length_a		43.946   
_cell_length_b		43.9461   
_cell_length_c		30.0736   
_cell_angle_alpha		90   
_cell_angle_beta		90   
_cell_angle_gamma		120   

_symmetry_space_group_name_H-M		'P1'
_symmetry_Int_Tables_number		1
_symmetry_cell_setting		Monoclinic

loop_
_symmetry_equiv_pos_as_xyz
'+x,+y,+z'

loop_
_atom_site_label
_atom_site_type_symbol
_atom_site_fract_x
_atom_site_fract_y
_atom_site_fract_z
1	C	0.183503	0.3698	0.973227
2	C	0.146309	0.350267	0.972765
3	C	0.12716	0.313084	0.973174
4	C	0.146701	0.295433	0.972662
5	C	0.183886	0.313465	0.306429
6	C	0.20155	0.350664	0.972625
7	H	0.133397	0.268703	0.975352
8	H	0.228272	0.364072	0.975432
9	H	0.132886	0.36357	0.975541
10	C	0.201478	0.406709	0.980223
11	C	0.202829	0.295488	0.313341
12	C	0.090249	0.294122	0.980143
13	O	0.237782	0.314777	0.988945
14	O	0.18218	0.422351	0.989234
15	O	0.074617	0.259169	0.989072
16	C	0.327807	0.131119	0.010568
17	C	0.361286	0.161862	0.009901
18	C	0.365818	0.19612	0.010642
19	C	0.335078	0.198859	0.009943
20	C	0.300818	0.169133	0.343947
21	C	0.298082	0.135653	0.009881
22	H	0.337843	0.223322	0.008433
23	H	0.273621	0.113953	0.008337
24	H	0.382987	0.159103	0.008356
25	C	0.324509	0.097241	0.011151
26	C	0.270233	0.172429	0.344555
27	C	0.3997	0.226697	0.011273
28	O	0.238573	0.143267	0.003922
29	O	0.353685	0.094732	0.004015
30	O	0.402224	0.258391	0.004173
31	C	0.203439	0.241964	0.330427
32	C	0.220878	0.249949	0.039114
33	C	0.241405	0.234221	0.051335
34	C	0.244142	0.210246	0.021744
35	C	0.22222	0.198954	0.317055
36	C	0.201746	0.21398	0.305459
37	C	0.256481	0.24217	0.094656
38	N	0.251266	0.26339	0.122285
39	C	0.232111	0.278178	0.109995
40	H	0.189338	0.207576	0.275244
41	H	0.224279	0.18304	0.293941
42	O	0.272736	0.22629	0.113832
43	N	0.216656	0.270926	0.069436
44	H	0.228069	0.29336	0.132317
45	H	0.200835	0.279909	0.063697
46	N	0.188083	0.259775	0.312922
47	H	0.169122	0.247329	0.291565
48	N	0.270005	0.201715	0.026021
49	H	0.290848	0.218741	0.041777
50	C	0.255035	0.460889	0.330565
51	C	0.247065	0.470377	0.039238
52	C	0.262787	0.006641	0.051414
53	C	0.286743	0.033331	0.021784
54	C	0.298047	0.02268	0.317124
55	C	0.282991	0.48717	0.305559
56	C	0.254862	0.013789	0.094738
57	N	0.233611	0.987379	0.122378
58	C	0.218862	0.453429	0.11014
59	H	0.289448	0.481181	0.275366
60	H	0.313964	0.040638	0.293997
61	O	0.270634	0.045969	0.113792
62	N	0.226107	0.4452	0.069594
63	H	0.203621	0.434214	0.132441
64	H	0.217122	0.420391	0.063875
65	N	0.237179	0.427729	0.313046
66	H	0.249662	0.421189	0.291768
67	N	0.295248	0.067723	0.025999
68	H	0.278198	0.071532	0.041701
69	C	0.036056	0.29347	0.330585
70	C	0.026568	0.275952	0.039221
71	C	0.490303	0.25543	0.051424
72	C	0.463608	0.252753	0.021837
73	C	0.474271	0.274696	0.317174
74	C	0.009769	0.295149	0.305598
75	C	0.483164	0.240379	0.094764
76	N	0.509587	0.245497	0.122354
77	C	0.04353	0.264625	0.110069
78	H	0.015815	0.307774	0.275523
79	H	0.4563	0.272846	0.29419
80	O	0.451006	0.224021	0.113872
81	N	0.05175	0.280133	0.069543
82	H	0.062746	0.268613	0.132376
83	H	0.076559	0.29595	0.063818
84	N	0.069206	0.308773	0.313055
85	H	0.075776	0.327857	0.291855
86	N	0.4292	0.22693	0.026137
87	H	0.425366	0.206059	0.041835
88	C	0.183503	0.3698	0.306561
89	C	0.146309	0.350267	0.3061
90	C	0.12716	0.313084	0.306509
91	C	0.146701	0.295433	0.305996
92	C	0.183886	0.313465	0.639761
93	C	0.20155	0.350664	0.305958
94	H	0.133397	0.268703	0.308685
95	H	0.228272	0.364072	0.308766
96	H	0.132886	0.36357	0.308876
97	C	0.201478	0.406709	0.313557
98	C	0.202829	0.295488	0.646674
99	C	0.090249	0.294122	0.313479
100	O	0.237782	0.314777	0.322279
101	O	0.18218	0.422351	0.322568
102	O	0.074617	0.259169	0.322407
103	C	0.327807	0.131119	0.3439
104	C	0.361286	0.161862	0.343235
105	C	0.365818	0.19612	0.343973
106	C	0.335078	0.198859	0.343275
107	C	0.300818	0.169133	0.677279
108	C	0.298082	0.135653	0.343215
109	H	0.337843	0.223322	0.341765
110	H	0.273621	0.113953	0.341669
111	H	0.382987	0.159103	0.341689
112	C	0.324509	0.097241	0.344485
113	C	0.270233	0.172429	0.677888
114	C	0.3997	0.226697	0.344605
115	O	0.238573	0.143267	0.337256
116	O	0.353685	0.094732	0.337346
117	O	0.402224	0.258391	0.337506
118	C	0.203439	0.241964	0.663759
119	C	0.220878	0.249949	0.372447
120	C	0.241405	0.234221	0.384667
121	C	0.244142	0.210246	0.355076
122	C	0.22222	0.198954	0.650389
123	C	0.201746	0.21398	0.63879
124	C	0.256481	0.24217	0.427987
125	N	0.251266	0.26339	0.455616
126	C	0.232111	0.278178	0.44333
127	H	0.189338	0.207576	0.608578
128	H	0.224279	0.18304	0.627275
129	O	0.272736	0.22629	0.447164
130	N	0.216656	0.270926	0.402769
131	H	0.228069	0.29336	0.465648
132	H	0.200835	0.279909	0.39703
133	N	0.188083	0.259775	0.646255
134	H	0.169122	0.247329	0.624898
135	N	0.270005	0.201715	0.359352
136	H	0.290848	0.218741	0.37511
137	C	0.255035	0.460889	0.663899
138	C	0.247065	0.470377	0.37257
139	C	0.262787	0.006641	0.384747
140	C	0.286743	0.033331	0.355116
141	C	0.298047	0.02268	0.650458
142	C	0.282991	0.48717	0.638893
143	C	0.254862	0.013789	0.42807
144	N	0.233611	0.987379	0.455709
145	C	0.218862	0.453429	0.443473
146	H	0.289448	0.481181	0.608701
147	H	0.313964	0.040638	0.627332
148	O	0.270634	0.045969	0.447124
149	N	0.226107	0.4452	0.402925
150	H	0.203621	0.434214	0.465775
151	H	0.217122	0.420391	0.397209
152	N	0.237179	0.427729	0.646378
153	H	0.249662	0.421189	0.625101
154	N	0.295248	0.067723	0.359332
155	H	0.278198	0.071532	0.375034
156	C	0.036056	0.29347	0.663919
157	C	0.026568	0.275952	0.372553
158	C	0.490303	0.25543	0.384757
159	C	0.463608	0.252753	0.355169
160	C	0.474271	0.274696	0.650508
161	C	0.009769	0.295149	0.63893
162	C	0.483164	0.240379	0.428097
163	N	0.509587	0.245497	0.455686
164	C	0.04353	0.264625	0.443403
165	H	0.015815	0.307774	0.608857
166	H	0.4563	0.272846	0.627525
167	O	0.451006	0.224021	0.447204
168	N	0.05175	0.280133	0.402876
169	H	0.062746	0.268613	0.465708
170	H	0.076559	0.29595	0.39715
171	N	0.069206	0.308773	0.646388
172	H	0.075776	0.327857	0.625187
173	N	0.4292	0.22693	0.359469
174	H	0.425366	0.206059	0.375167
175	C	0.183503	0.3698	0.639894
176	C	0.146309	0.350267	0.639432
177	C	0.12716	0.313084	0.639841
178	C	0.146701	0.295433	0.639329
179	C	0.183886	0.313465	0.973094
180	C	0.20155	0.350664	0.639293
181	H	0.133397	0.268703	0.642019
182	H	0.228272	0.364072	0.642099
183	H	0.132886	0.36357	0.642209
184	C	0.201478	0.406709	0.646891
185	C	0.202829	0.295488	0.980007
186	C	0.090249	0.294122	0.646811
187	O	0.237782	0.314777	0.655613
188	O	0.18218	0.422351	0.655902
189	O	0.074617	0.259169	0.655739
190	C	0.327807	0.131119	0.677233
191	C	0.361286	0.161862	0.676568
192	C	0.365818	0.19612	0.677309
193	C	0.335078	0.198859	0.676608
194	C	0.300818	0.169133	0.010612
195	C	0.298082	0.135653	0.676548
196	H	0.337843	0.223322	0.675098
197	H	0.273621	0.113953	0.675002
198	H	0.382987	0.159103	0.675022
199	C	0.324509	0.097241	0.677818
200	C	0.270233	0.172429	0.011221
201	C	0.3997	0.226697	0.677938
202	O	0.238573	0.143267	0.670589
203	O	0.353685	0.094732	0.670679
204	O	0.402224	0.258391	0.670839
205	C	0.203439	0.241964	0.997092
206	C	0.220878	0.249949	0.705779
207	C	0.241405	0.234221	0.718
208	C	0.244142	0.210246	0.688409
209	C	0.22222	0.198954	0.983721
210	C	0.201746	0.21398	0.972123
211	C	0.256481	0.24217	0.76132
212	N	0.251266	0.26339	0.788952
213	C	0.232111	0.278178	0.776662
214	H	0.189338	0.207576	0.941911
215	H	0.224279	0.18304	0.960608
216	O	0.272736	0.22629	0.780496
217	N	0.216656	0.270926	0.736102
218	H	0.228069	0.29336	0.798981
219	H	0.200835	0.279909	0.730363
220	N	0.188083	0.259775	0.979588
221	H	0.169122	0.247329	0.958231
222	N	0.270005	0.201715	0.692685
223	H	0.290848	0.218741	0.708443
224	C	0.255035	0.460889	0.997232
225	C	0.247065	0.470377	0.705903
226	C	0.262787	0.006641	0.718079
227	C	0.286743	0.033331	0.688449
228	C	0.298047	0.02268	0.983791
229	C	0.282991	0.48717	0.972226
230	C	0.254862	0.013789	0.761403
231	N	0.233611	0.987379	0.789042
232	C	0.218862	0.453429	0.776805
233	H	0.289448	0.481181	0.942034
234	H	0.313964	0.040638	0.960665
235	O	0.270634	0.045969	0.780456
236	N	0.226107	0.4452	0.736258
237	H	0.203621	0.434214	0.799107
238	H	0.217122	0.420391	0.730542
239	N	0.237179	0.427729	0.979711
240	H	0.249662	0.421189	0.958433
241	N	0.295248	0.067723	0.692665
242	H	0.278198	0.071532	0.708366
243	C	0.036056	0.29347	0.997252
244	C	0.026568	0.275952	0.705886
245	C	0.490303	0.25543	0.718089
246	C	0.463608	0.252753	0.688502
247	C	0.474271	0.274696	0.983841
248	C	0.009769	0.295149	0.972263
249	C	0.483164	0.240379	0.76143
250	N	0.509587	0.245497	0.789019
251	C	0.04353	0.264625	0.776736
252	H	0.015815	0.307774	0.94219
253	H	0.4563	0.272846	0.960857
254	O	0.451006	0.224021	0.780536
255	N	0.05175	0.280133	0.736208
256	H	0.062746	0.268613	0.799041
257	H	0.076559	0.29595	0.730486
258	N	0.069206	0.308773	0.979721
259	H	0.075776	0.327857	0.95852
260	N	0.4292	0.22693	0.692801
261	H	0.425366	0.206059	0.708499
262	C	0.183503	0.8698	0.973227
263	C	0.146309	0.850267	0.972765
264	C	0.127161	0.813084	0.973174
265	C	0.146701	0.795432	0.972662
266	C	0.183886	0.813465	0.306429
267	C	0.20155	0.850663	0.972625
268	H	0.133398	0.768702	0.975352
269	H	0.228271	0.864072	0.975432
270	H	0.132886	0.86357	0.975541
271	C	0.201477	0.906709	0.980223
272	C	0.202829	0.795488	0.313341
273	C	0.090249	0.794119	0.980143
274	O	0.237781	0.814776	0.988945
275	O	0.182181	0.922351	0.989234
276	O	0.074616	0.759167	0.989072
277	C	0.327806	0.631119	0.010568
278	C	0.361285	0.661861	0.009901
279	C	0.365818	0.696119	0.010642
280	C	0.335076	0.698857	0.009943
281	C	0.300817	0.669132	0.343947
282	C	0.29808	0.635652	0.009881
283	H	0.337843	0.723322	0.008433
284	H	0.273621	0.613954	0.008337
285	H	0.382986	0.659103	0.008356
286	C	0.324509	0.59724	0.011151
287	C	0.270232	0.672427	0.344555
288	C	0.399698	0.726696	0.011273
289	O	0.238572	0.643266	0.003922
290	O	0.353684	0.59473	0.004015
291	O	0.402225	0.758392	0.004173
292	C	0.203439	0.741965	0.330427
293	C	0.220877	0.749947	0.039114
294	C	0.241405	0.734221	0.051335
295	C	0.244141	0.710245	0.021744
296	C	0.22222	0.698954	0.317055
297	C	0.201745	0.713979	0.305459
298	C	0.256481	0.74217	0.094656
299	N	0.251266	0.76339	0.122285
300	C	0.232111	0.778177	0.109995
301	H	0.189338	0.707575	0.275244
302	H	0.224278	0.683039	0.293941
303	O	0.272736	0.726289	0.113832
304	N	0.216656	0.770925	0.069436
305	H	0.228069	0.793359	0.132317
306	H	0.200835	0.779909	0.063697
307	N	0.188083	0.759774	0.312922
308	H	0.169121	0.747327	0.291565
309	N	0.270004	0.701713	0.026021
310	H	0.290847	0.71874	0.041777
311	C	0.255034	0.960889	0.330565
312	C	0.247063	0.970374	0.039238
313	C	0.262786	0.50664	0.051414
314	C	0.286742	0.53333	0.021784
315	C	0.298047	0.522681	0.317124
316	C	0.28299	0.987169	0.305559
317	C	0.254861	0.513789	0.094738
318	N	0.233612	0.48738	0.122378
319	C	0.218862	0.953429	0.11014
320	H	0.289448	0.981181	0.275366
321	H	0.313962	0.540637	0.293997
322	O	0.270634	0.545969	0.113792
323	N	0.226105	0.945197	0.069594
324	H	0.203622	0.934214	0.132441
325	H	0.217122	0.92039	0.063875
326	N	0.237179	0.927729	0.313046
327	H	0.249662	0.921189	0.291768
328	N	0.295248	0.567722	0.025999
329	H	0.278197	0.571532	0.041701
330	C	0.036056	0.79347	0.330585
331	C	0.026566	0.775952	0.039221
332	C	0.490303	0.755431	0.051424
333	C	0.463609	0.752753	0.021837
334	C	0.474271	0.774696	0.317174
335	C	0.009769	0.795149	0.305598
336	C	0.483164	0.740378	0.094764
337	N	0.509586	0.745496	0.122354
338	C	0.043531	0.764625	0.110069
339	H	0.015815	0.807774	0.275523
340	H	0.456298	0.772843	0.29419
341	O	0.451005	0.724021	0.113872
342	N	0.051751	0.780132	0.069543
343	H	0.062746	0.768613	0.132376
344	H	0.076558	0.79595	0.063818
345	N	0.069207	0.808772	0.313055
346	H	0.075777	0.827856	0.291855
347	N	0.4292	0.72693	0.026137
348	H	0.425366	0.706059	0.041835
349	C	0.183503	0.8698	0.306561
350	C	0.146309	0.850267	0.3061
351	C	0.127161	0.813084	0.306509
352	C	0.146701	0.795432	0.305996
353	C	0.183886	0.813465	0.639761
354	C	0.20155	0.850663	0.305958
355	H	0.133398	0.768702	0.308685
356	H	0.228271	0.864072	0.308766
357	H	0.132886	0.86357	0.308876
358	C	0.201477	0.906709	0.313557
359	C	0.202829	0.795488	0.646674
360	C	0.090249	0.794119	0.313479
361	O	0.237781	0.814776	0.322279
362	O	0.182181	0.922351	0.322568
363	O	0.074616	0.759167	0.322407
364	C	0.327806	0.631119	0.3439
365	C	0.361285	0.661861	0.343235
366	C	0.365818	0.696119	0.343973
367	C	0.335076	0.698857	0.343275
368	C	0.300817	0.669132	0.677279
369	C	0.29808	0.635652	0.343215
370	H	0.337843	0.723322	0.341765
371	H	0.273621	0.613954	0.341669
372	H	0.382986	0.659103	0.341689
373	C	0.324509	0.59724	0.344485
374	C	0.270232	0.672427	0.677888
375	C	0.399698	0.726696	0.344605
376	O	0.238572	0.643266	0.337256
377	O	0.353684	0.59473	0.337346
378	O	0.402225	0.758392	0.337506
379	C	0.203439	0.741965	0.663759
380	C	0.220877	0.749947	0.372447
381	C	0.241405	0.734221	0.384667
382	C	0.244141	0.710245	0.355076
383	C	0.22222	0.698954	0.650389
384	C	0.201745	0.713979	0.63879
385	C	0.256481	0.74217	0.427987
386	N	0.251266	0.76339	0.455616
387	C	0.232111	0.778177	0.44333
388	H	0.189338	0.707575	0.608578
389	H	0.224278	0.683039	0.627275
390	O	0.272736	0.726289	0.447164
391	N	0.216656	0.770925	0.402769
392	H	0.228069	0.793359	0.465648
393	H	0.200835	0.779909	0.39703
394	N	0.188083	0.759774	0.646255
395	H	0.169121	0.747327	0.624898
396	N	0.270004	0.701713	0.359352
397	H	0.290847	0.71874	0.37511
398	C	0.255034	0.960889	0.663899
399	C	0.247063	0.970374	0.37257
400	C	0.262786	0.50664	0.384747
401	C	0.286742	0.53333	0.355116
402	C	0.298047	0.522681	0.650458
403	C	0.28299	0.987169	0.638893
404	C	0.254861	0.513789	0.42807
405	N	0.233612	0.48738	0.455709
406	C	0.218862	0.953429	0.443473
407	H	0.289448	0.981181	0.608701
408	H	0.313962	0.540637	0.627332
409	O	0.270634	0.545969	0.447124
410	N	0.226105	0.945197	0.402925
411	H	0.203622	0.934214	0.465775
412	H	0.217122	0.92039	0.397209
413	N	0.237179	0.927729	0.646378
414	H	0.249662	0.921189	0.625101
415	N	0.295248	0.567722	0.359332
416	H	0.278197	0.571532	0.375034
417	C	0.036056	0.79347	0.663919
418	C	0.026566	0.775952	0.372553
419	C	0.490303	0.755431	0.384757
420	C	0.463609	0.752753	0.355169
421	C	0.474271	0.774696	0.650508
422	C	0.009769	0.795149	0.63893
423	C	0.483164	0.740378	0.428097
424	N	0.509586	0.745496	0.455686
425	C	0.043531	0.764625	0.443403
426	H	0.015815	0.807774	0.608857
427	H	0.456298	0.772843	0.627525
428	O	0.451005	0.724021	0.447204
429	N	0.051751	0.780132	0.402876
430	H	0.062746	0.768613	0.465708
431	H	0.076558	0.79595	0.39715
432	N	0.069207	0.808772	0.646388
433	H	0.075777	0.827856	0.625187
434	N	0.4292	0.72693	0.359469
435	H	0.425366	0.706059	0.375167
436	C	0.183503	0.8698	0.639894
437	C	0.146309	0.850267	0.639432
438	C	0.127161	0.813084	0.639841
439	C	0.146701	0.795432	0.639329
440	C	0.183886	0.813465	0.973094
441	C	0.20155	0.850663	0.639293
442	H	0.133398	0.768702	0.642019
443	H	0.228271	0.864072	0.642099
444	H	0.132886	0.86357	0.642209
445	C	0.201477	0.906709	0.646891
446	C	0.202829	0.795488	0.980007
447	C	0.090249	0.794119	0.646811
448	O	0.237781	0.814776	0.655613
449	O	0.182181	0.922351	0.655902
450	O	0.074616	0.759167	0.655739
451	C	0.327806	0.631119	0.677233
452	C	0.361285	0.661861	0.676568
453	C	0.365818	0.696119	0.677309
454	C	0.335076	0.698857	0.676608
455	C	0.300817	0.669132	0.010612
456	C	0.29808	0.635652	0.676548
457	H	0.337843	0.723322	0.675098
458	H	0.273621	0.613954	0.675002
459	H	0.382986	0.659103	0.675022
460	C	0.324509	0.59724	0.677818
461	C	0.270232	0.672427	0.011221
462	C	0.399698	0.726696	0.677938
463	O	0.238572	0.643266	0.670589
464	O	0.353684	0.59473	0.670679
465	O	0.402225	0.758392	0.670839
466	C	0.203439	0.741965	0.997092
467	C	0.220877	0.749947	0.705779
468	C	0.241405	0.734221	0.718
469	C	0.244141	0.710245	0.688409
470	C	0.22222	0.698954	0.983721
471	C	0.201745	0.713979	0.972123
472	C	0.256481	0.74217	0.76132
473	N	0.251266	0.76339	0.788952
474	C	0.232111	0.778177	0.776662
475	H	0.189338	0.707575	0.941911
476	H	0.224278	0.683039	0.960608
477	O	0.272736	0.726289	0.780496
478	N	0.216656	0.770925	0.736102
479	H	0.228069	0.793359	0.798981
480	H	0.200835	0.779909	0.730363
481	N	0.188083	0.759774	0.979588
482	H	0.169121	0.747327	0.958231
483	N	0.270004	0.701713	0.692685
484	H	0.290847	0.71874	0.708443
485	C	0.255034	0.960889	0.997232
486	C	0.247063	0.970374	0.705903
487	C	0.262786	0.50664	0.718079
488	C	0.286742	0.53333	0.688449
489	C	0.298047	0.522681	0.983791
490	C	0.28299	0.987169	0.972226
491	C	0.254861	0.513789	0.761403
492	N	0.233612	0.48738	0.789042
493	C	0.218862	0.953429	0.776805
494	H	0.289448	0.981181	0.942034
495	H	0.313962	0.540637	0.960665
496	O	0.270634	0.545969	0.780456
497	N	0.226105	0.945197	0.736258
498	H	0.203622	0.934214	0.799107
499	H	0.217122	0.92039	0.730542
500	N	0.237179	0.927729	0.979711
501	H	0.249662	0.921189	0.958433
502	N	0.295248	0.567722	0.692665
503	H	0.278197	0.571532	0.708366
504	C	0.036056	0.79347	0.997252
505	C	0.026566	0.775952	0.705886
506	C	0.490303	0.755431	0.718089
507	C	0.463609	0.752753	0.688502
508	C	0.474271	0.774696	0.983841
509	C	0.009769	0.795149	0.972263
510	C	0.483164	0.740378	0.76143
511	N	0.509586	0.745496	0.789019
512	C	0.043531	0.764625	0.776736
513	H	0.015815	0.807774	0.94219
514	H	0.456298	0.772843	0.960857
515	O	0.451005	0.724021	0.780536
516	N	0.051751	0.780132	0.736208
517	H	0.062746	0.768613	0.799041
518	H	0.076558	0.79595	0.730486
519	N	0.069207	0.808772	0.979721
520	H	0.075777	0.827856	0.95852
521	N	0.4292	0.72693	0.692801
522	H	0.425366	0.706059	0.708499
523	C	0.683503	0.3698	0.973227
524	C	0.646309	0.350267	0.972765
525	C	0.627161	0.313084	0.973174
526	C	0.646701	0.295433	0.972662
527	C	0.683887	0.313465	0.306429
528	C	0.70155	0.350664	0.972625
529	H	0.633398	0.268703	0.975352
530	H	0.728272	0.364072	0.975432
531	H	0.632886	0.36357	0.975541
532	C	0.701479	0.406709	0.980223
533	C	0.70283	0.295488	0.313341
534	C	0.59025	0.294122	0.980143
535	O	0.737782	0.314777	0.988945
536	O	0.682181	0.422351	0.989234
537	O	0.574617	0.259169	0.989072
538	C	0.827807	0.131119	0.010568
539	C	0.861286	0.161862	0.009901
540	C	0.865818	0.19612	0.010642
541	C	0.835078	0.198859	0.009943
542	C	0.800818	0.169133	0.343947
543	C	0.798082	0.135653	0.009881
544	H	0.837843	0.223322	0.008433
545	H	0.773622	0.113953	0.008337
546	H	0.882987	0.159103	0.008356
547	C	0.824509	0.097241	0.011151
548	C	0.770233	0.172429	0.344555
549	C	0.8997	0.226697	0.011273
550	O	0.738573	0.143267	0.003922
551	O	0.853685	0.094732	0.004015
552	O	0.902224	0.258391	0.004173
553	C	0.70344	0.241964	0.330427
554	C	0.720879	0.249949	0.039114
555	C	0.741404	0.234221	0.051335
556	C	0.744141	0.210246	0.021744
557	C	0.722221	0.198954	0.317055
558	C	0.701747	0.21398	0.305459
559	C	0.756481	0.24217	0.094656
560	N	0.751267	0.26339	0.122285
561	C	0.732112	0.278178	0.109995
562	H	0.689338	0.207576	0.275244
563	H	0.724279	0.18304	0.293941
564	O	0.772736	0.22629	0.113832
565	N	0.716656	0.270926	0.069436
566	H	0.728068	0.29336	0.132317
567	H	0.700836	0.279909	0.063697
568	N	0.688084	0.259775	0.312922
569	H	0.669122	0.247329	0.291565
570	N	0.770006	0.201715	0.026021
571	H	0.790848	0.218741	0.041777
572	C	0.755036	0.460889	0.330565
573	C	0.747064	0.470377	0.039238
574	C	0.762787	0.006641	0.051414
575	C	0.786743	0.033331	0.021784
576	C	0.798047	0.02268	0.317124
577	C	0.78299	0.48717	0.305559
578	C	0.754862	0.013789	0.094738
579	N	0.733611	0.987379	0.122378
580	C	0.718862	0.453429	0.11014
581	H	0.789448	0.481181	0.275366
582	H	0.813964	0.040638	0.293997
583	O	0.770634	0.045969	0.113792
584	N	0.726106	0.4452	0.069594
585	H	0.703622	0.434214	0.132441
586	H	0.717122	0.420391	0.063875
587	N	0.73718	0.427729	0.313046
588	H	0.749663	0.421189	0.291768
589	N	0.795248	0.067723	0.025999
590	H	0.778198	0.071532	0.041701
591	C	0.536056	0.29347	0.330585
592	C	0.526569	0.275952	0.039221
593	C	0.990303	0.25543	0.051424
594	C	0.963608	0.252753	0.021837
595	C	0.974271	0.274696	0.317174
596	C	0.509769	0.295149	0.305598
597	C	0.983164	0.240379	0.094764
598	N	0.009586	0.245497	0.122354
599	C	0.543531	0.264625	0.110069
600	H	0.515815	0.307774	0.275523
601	H	0.9563	0.272846	0.29419
602	O	0.951006	0.224021	0.113872
603	N	0.551751	0.280133	0.069543
604	H	0.562746	0.268613	0.132376
605	H	0.576558	0.29595	0.063818
606	N	0.569207	0.308773	0.313055
607	H	0.575777	0.327857	0.291855
608	N	0.9292	0.22693	0.026137
609	H	0.925366	0.206059	0.041835
610	C	0.683503	0.3698	0.306561
611	C	0.646309	0.350267	0.3061
612	C	0.627161	0.313084	0.306509
613	C	0.646701	0.295433	0.305996
614	C	0.683887	0.313465	0.639761
615	C	0.70155	0.350664	0.305958
616	H	0.633398	0.268703	0.308685
617	H	0.728272	0.364072	0.308766
618	H	0.632886	0.36357	0.308876
619	C	0.701479	0.406709	0.313557
620	C	0.70283	0.295488	0.646674
621	C	0.59025	0.294122	0.313479
622	O	0.737782	0.314777	0.322279
623	O	0.682181	0.422351	0.322568
624	O	0.574617	0.259169	0.322407
625	C	0.827807	0.131119	0.3439
626	C	0.861286	0.161862	0.343235
627	C	0.865818	0.19612	0.343973
628	C	0.835078	0.198859	0.343275
629	C	0.800818	0.169133	0.677279
630	C	0.798082	0.135653	0.343215
631	H	0.837843	0.223322	0.341765
632	H	0.773622	0.113953	0.341669
633	H	0.882987	0.159103	0.341689
634	C	0.824509	0.097241	0.344485
635	C	0.770233	0.172429	0.677888
636	C	0.8997	0.226697	0.344605
637	O	0.738573	0.143267	0.337256
638	O	0.853685	0.094732	0.337346
639	O	0.902224	0.258391	0.337506
640	C	0.70344	0.241964	0.663759
641	C	0.720879	0.249949	0.372447
642	C	0.741404	0.234221	0.384667
643	C	0.744141	0.210246	0.355076
644	C	0.722221	0.198954	0.650389
645	C	0.701747	0.21398	0.63879
646	C	0.756481	0.24217	0.427987
647	N	0.751267	0.26339	0.455616
648	C	0.732112	0.278178	0.44333
649	H	0.689338	0.207576	0.608578
650	H	0.724279	0.18304	0.627275
651	O	0.772736	0.22629	0.447164
652	N	0.716656	0.270926	0.402769
653	H	0.728068	0.29336	0.465648
654	H	0.700836	0.279909	0.39703
655	N	0.688084	0.259775	0.646255
656	H	0.669122	0.247329	0.624898
657	N	0.770006	0.201715	0.359352
658	H	0.790848	0.218741	0.37511
659	C	0.755036	0.460889	0.663899
660	C	0.747064	0.470377	0.37257
661	C	0.762787	0.006641	0.384747
662	C	0.786743	0.033331	0.355116
663	C	0.798047	0.02268	0.650458
664	C	0.78299	0.48717	0.638893
665	C	0.754862	0.013789	0.42807
666	N	0.733611	0.987379	0.455709
667	C	0.718862	0.453429	0.443473
668	H	0.789448	0.481181	0.608701
669	H	0.813964	0.040638	0.627332
670	O	0.770634	0.045969	0.447124
671	N	0.726106	0.4452	0.402925
672	H	0.703622	0.434214	0.465775
673	H	0.717122	0.420391	0.397209
674	N	0.73718	0.427729	0.646378
675	H	0.749663	0.421189	0.625101
676	N	0.795248	0.067723	0.359332
677	H	0.778198	0.071532	0.375034
678	C	0.536056	0.29347	0.663919
679	C	0.526569	0.275952	0.372553
680	C	0.990303	0.25543	0.384757
681	C	0.963608	0.252753	0.355169
682	C	0.974271	0.274696	0.650508
683	C	0.509769	0.295149	0.63893
684	C	0.983164	0.240379	0.428097
685	N	0.009586	0.245497	0.455686
686	C	0.543531	0.264625	0.443403
687	H	0.515815	0.307774	0.608857
688	H	0.9563	0.272846	0.627525
689	O	0.951006	0.224021	0.447204
690	N	0.551751	0.280133	0.402876
691	H	0.562746	0.268613	0.465708
692	H	0.576558	0.29595	0.39715
693	N	0.569207	0.308773	0.646388
694	H	0.575777	0.327857	0.625187
695	N	0.9292	0.22693	0.359469
696	H	0.925366	0.206059	0.375167
697	C	0.683503	0.3698	0.639894
698	C	0.646309	0.350267	0.639432
699	C	0.627161	0.313084	0.639841
700	C	0.646701	0.295433	0.639329
701	C	0.683887	0.313465	0.973094
702	C	0.70155	0.350664	0.639293
703	H	0.633398	0.268703	0.642019
704	H	0.728272	0.364072	0.642099
705	H	0.632886	0.36357	0.642209
706	C	0.701479	0.406709	0.646891
707	C	0.70283	0.295488	0.980007
708	C	0.59025	0.294122	0.646811
709	O	0.737782	0.314777	0.655613
710	O	0.682181	0.422351	0.655902
711	O	0.574617	0.259169	0.655739
712	C	0.827807	0.131119	0.677233
713	C	0.861286	0.161862	0.676568
714	C	0.865818	0.19612	0.677309
715	C	0.835078	0.198859	0.676608
716	C	0.800818	0.169133	0.010612
717	C	0.798082	0.135653	0.676548
718	H	0.837843	0.223322	0.675098
719	H	0.773622	0.113953	0.675002
720	H	0.882987	0.159103	0.675022
721	C	0.824509	0.097241	0.677818
722	C	0.770233	0.172429	0.011221
723	C	0.8997	0.226697	0.677938
724	O	0.738573	0.143267	0.670589
725	O	0.853685	0.094732	0.670679
726	O	0.902224	0.258391	0.670839
727	C	0.70344	0.241964	0.997092
728	C	0.720879	0.249949	0.705779
729	C	0.741404	0.234221	0.718
730	C	0.744141	0.210246	0.688409
731	C	0.722221	0.198954	0.983721
732	C	0.701747	0.21398	0.972123
733	C	0.756481	0.24217	0.76132
734	N	0.751267	0.26339	0.788952
735	C	0.732112	0.278178	0.776662
736	H	0.689338	0.207576	0.941911
737	H	0.724279	0.18304	0.960608
738	O	0.772736	0.22629	0.780496
739	N	0.716656	0.270926	0.736102
740	H	0.728068	0.29336	0.798981
741	H	0.700836	0.279909	0.730363
742	N	0.688084	0.259775	0.979588
743	H	0.669122	0.247329	0.958231
744	N	0.770006	0.201715	0.692685
745	H	0.790848	0.218741	0.708443
746	C	0.755036	0.460889	0.997232
747	C	0.747064	0.470377	0.705903
748	C	0.762787	0.006641	0.718079
749	C	0.786743	0.033331	0.688449
750	C	0.798047	0.02268	0.983791
751	C	0.78299	0.48717	0.972226
752	C	0.754862	0.013789	0.761403
753	N	0.733611	0.987379	0.789042
754	C	0.718862	0.453429	0.776805
755	H	0.789448	0.481181	0.942034
756	H	0.813964	0.040638	0.960665
757	O	0.770634	0.045969	0.780456
758	N	0.726106	0.4452	0.736258
759	H	0.703622	0.434214	0.799107
760	H	0.717122	0.420391	0.730542
761	N	0.73718	0.427729	0.979711
762	H	0.749663	0.421189	0.958433
763	N	0.795248	0.067723	0.692665
764	H	0.778198	0.071532	0.708366
765	C	0.536056	0.29347	0.997252
766	C	0.526569	0.275952	0.705886
767	C	0.990303	0.25543	0.718089
768	C	0.963608	0.252753	0.688502
769	C	0.974271	0.274696	0.983841
770	C	0.509769	0.295149	0.972263
771	C	0.983164	0.240379	0.76143
772	N	0.009586	0.245497	0.789019
773	C	0.543531	0.264625	0.776736
774	H	0.515815	0.307774	0.94219
775	H	0.9563	0.272846	0.960857
776	O	0.951006	0.224021	0.780536
777	N	0.551751	0.280133	0.736208
778	H	0.562746	0.268613	0.799041
779	H	0.576558	0.29595	0.730486
780	N	0.569207	0.308773	0.979721
781	H	0.575777	0.327857	0.95852
782	N	0.9292	0.22693	0.692801
783	H	0.925366	0.206059	0.708499
784	C	0.683503	0.8698	0.973227
785	C	0.646309	0.850267	0.972765
786	C	0.62716	0.813084	0.973174
787	C	0.646701	0.795432	0.972662
788	C	0.683886	0.813465	0.306429
789	C	0.70155	0.850663	0.972625
790	H	0.633398	0.768702	0.975352
791	H	0.728272	0.864072	0.975432
792	H	0.632886	0.86357	0.975541
793	C	0.701479	0.906709	0.980223
794	C	0.70283	0.795488	0.313341
795	C	0.590248	0.794119	0.980143
796	O	0.737782	0.814776	0.988945
797	O	0.68218	0.922351	0.989234
798	O	0.574616	0.759167	0.989072
799	C	0.827806	0.631119	0.010568
800	C	0.861286	0.661861	0.009901
801	C	0.865818	0.696119	0.010642
802	C	0.835077	0.698857	0.009943
803	C	0.800818	0.669132	0.343947
804	C	0.798081	0.635652	0.009881
805	H	0.837843	0.723322	0.008433
806	H	0.773622	0.613954	0.008337
807	H	0.882987	0.659103	0.008356
808	C	0.824508	0.59724	0.011151
809	C	0.770232	0.672427	0.344555
810	C	0.899699	0.726696	0.011273
811	O	0.738572	0.643266	0.003922
812	O	0.853684	0.59473	0.004015
813	O	0.902224	0.758392	0.004173
814	C	0.70344	0.741965	0.330427
815	C	0.720878	0.749947	0.039114
816	C	0.741404	0.734221	0.051335
817	C	0.744141	0.710245	0.021744
818	C	0.722221	0.698954	0.317055
819	C	0.701747	0.713979	0.305459
820	C	0.756481	0.74217	0.094656
821	N	0.751267	0.76339	0.122285
822	C	0.732112	0.778177	0.109995
823	H	0.689338	0.707575	0.275244
824	H	0.724278	0.683039	0.293941
825	O	0.772736	0.726289	0.113832
826	N	0.716656	0.770925	0.069436
827	H	0.728068	0.793359	0.132317
828	H	0.700834	0.779909	0.063697
829	N	0.688083	0.759774	0.312922
830	H	0.669122	0.747327	0.291565
831	N	0.770005	0.701713	0.026021
832	H	0.790847	0.71874	0.041777
833	C	0.755036	0.960889	0.330565
834	C	0.747063	0.970374	0.039238
835	C	0.762786	0.50664	0.051414
836	C	0.786742	0.53333	0.021784
837	C	0.798047	0.522681	0.317124
838	C	0.78299	0.987169	0.305559
839	C	0.754863	0.513789	0.094738
840	N	0.733612	0.48738	0.122378
841	C	0.718862	0.953429	0.11014
842	H	0.789448	0.981181	0.275366
843	H	0.813963	0.540637	0.293997
844	O	0.770634	0.545969	0.113792
845	N	0.726105	0.945197	0.069594
846	H	0.703622	0.934214	0.132441
847	H	0.717122	0.92039	0.063875
848	N	0.73718	0.927729	0.313046
849	H	0.749663	0.921189	0.291768
850	N	0.795248	0.567722	0.025999
851	H	0.778198	0.571532	0.041701
852	C	0.536056	0.79347	0.330585
853	C	0.526567	0.775952	0.039221
854	C	0.990304	0.755431	0.051424
855	C	0.963609	0.752753	0.021837
856	C	0.974271	0.774696	0.317174
857	C	0.509769	0.795149	0.305598
858	C	0.983164	0.740378	0.094764
859	N	0.009586	0.745496	0.122354
860	C	0.54353	0.764625	0.110069
861	H	0.515816	0.807774	0.275523
862	H	0.956298	0.772843	0.29419
863	O	0.951006	0.724021	0.113872
864	N	0.55175	0.780132	0.069543
865	H	0.562746	0.768613	0.132376
866	H	0.576559	0.79595	0.063818
867	N	0.569206	0.808772	0.313055
868	H	0.575776	0.827856	0.291855
869	N	0.9292	0.72693	0.026137
870	H	0.925366	0.706059	0.041835
871	C	0.683503	0.8698	0.306561
872	C	0.646309	0.850267	0.3061
873	C	0.62716	0.813084	0.306509
874	C	0.646701	0.795432	0.305996
875	C	0.683886	0.813465	0.639761
876	C	0.70155	0.850663	0.305958
877	H	0.633398	0.768702	0.308685
878	H	0.728272	0.864072	0.308766
879	H	0.632886	0.86357	0.308876
880	C	0.701479	0.906709	0.313557
881	C	0.70283	0.795488	0.646674
882	C	0.590248	0.794119	0.313479
883	O	0.737782	0.814776	0.322279
884	O	0.68218	0.922351	0.322568
885	O	0.574616	0.759167	0.322407
886	C	0.827806	0.631119	0.3439
887	C	0.861286	0.661861	0.343235
888	C	0.865818	0.696119	0.343973
889	C	0.835077	0.698857	0.343275
890	C	0.800818	0.669132	0.677279
891	C	0.798081	0.635652	0.343215
892	H	0.837843	0.723322	0.341765
893	H	0.773622	0.613954	0.341669
894	H	0.882987	0.659103	0.341689
895	C	0.824508	0.59724	0.344485
896	C	0.770232	0.672427	0.677888
897	C	0.899699	0.726696	0.344605
898	O	0.738572	0.643266	0.337256
899	O	0.853684	0.59473	0.337346
900	O	0.902224	0.758392	0.337506
901	C	0.70344	0.741965	0.663759
902	C	0.720878	0.749947	0.372447
903	C	0.741404	0.734221	0.384667
904	C	0.744141	0.710245	0.355076
905	C	0.722221	0.698954	0.650389
906	C	0.701747	0.713979	0.63879
907	C	0.756481	0.74217	0.427987
908	N	0.751267	0.76339	0.455616
909	C	0.732112	0.778177	0.44333
910	H	0.689338	0.707575	0.608578
911	H	0.724278	0.683039	0.627275
912	O	0.772736	0.726289	0.447164
913	N	0.716656	0.770925	0.402769
914	H	0.728068	0.793359	0.465648
915	H	0.700834	0.779909	0.39703
916	N	0.688083	0.759774	0.646255
917	H	0.669122	0.747327	0.624898
918	N	0.770005	0.701713	0.359352
919	H	0.790847	0.71874	0.37511
920	C	0.755036	0.960889	0.663899
921	C	0.747063	0.970374	0.37257
922	C	0.762786	0.50664	0.384747
923	C	0.786742	0.53333	0.355116
924	C	0.798047	0.522681	0.650458
925	C	0.78299	0.987169	0.638893
926	C	0.754863	0.513789	0.42807
927	N	0.733612	0.48738	0.455709
928	C	0.718862	0.953429	0.443473
929	H	0.789448	0.981181	0.608701
930	H	0.813963	0.540637	0.627332
931	O	0.770634	0.545969	0.447124
932	N	0.726105	0.945197	0.402925
933	H	0.703622	0.934214	0.465775
934	H	0.717122	0.92039	0.397209
935	N	0.73718	0.927729	0.646378
936	H	0.749663	0.921189	0.625101
937	N	0.795248	0.567722	0.359332
938	H	0.778198	0.571532	0.375034
939	C	0.536056	0.79347	0.663919
940	C	0.526567	0.775952	0.372553
941	C	0.990304	0.755431	0.384757
942	C	0.963609	0.752753	0.355169
943	C	0.974271	0.774696	0.650508
944	C	0.509769	0.795149	0.63893
945	C	0.983164	0.740378	0.428097
946	N	0.009586	0.745496	0.455686
947	C	0.54353	0.764625	0.443403
948	H	0.515816	0.807774	0.608857
949	H	0.956298	0.772843	0.627525
950	O	0.951006	0.724021	0.447204
951	N	0.55175	0.780132	0.402876
952	H	0.562746	0.768613	0.465708
953	H	0.576559	0.79595	0.39715
954	N	0.569206	0.808772	0.646388
955	H	0.575776	0.827856	0.625187
956	N	0.9292	0.72693	0.359469
957	H	0.925366	0.706059	0.375167
958	C	0.683503	0.8698	0.639894
959	C	0.646309	0.850267	0.639432
960	C	0.62716	0.813084	0.639841
961	C	0.646701	0.795432	0.639329
962	C	0.683886	0.813465	0.973094
963	C	0.70155	0.850663	0.639293
964	H	0.633398	0.768702	0.642019
965	H	0.728272	0.864072	0.642099
966	H	0.632886	0.86357	0.642209
967	C	0.701479	0.906709	0.646891
968	C	0.70283	0.795488	0.980007
969	C	0.590248	0.794119	0.646811
970	O	0.737782	0.814776	0.655613
971	O	0.68218	0.922351	0.655902
972	O	0.574616	0.759167	0.655739
973	C	0.827806	0.631119	0.677233
974	C	0.861286	0.661861	0.676568
975	C	0.865818	0.696119	0.677309
976	C	0.835077	0.698857	0.676608
977	C	0.800818	0.669132	0.010612
978	C	0.798081	0.635652	0.676548
979	H	0.837843	0.723322	0.675098
980	H	0.773622	0.613954	0.675002
981	H	0.882987	0.659103	0.675022
982	C	0.824508	0.59724	0.677818
983	C	0.770232	0.672427	0.011221
984	C	0.899699	0.726696	0.677938
985	O	0.738572	0.643266	0.670589
986	O	0.853684	0.59473	0.670679
987	O	0.902224	0.758392	0.670839
988	C	0.70344	0.741965	0.997092
989	C	0.720878	0.749947	0.705779
990	C	0.741404	0.734221	0.718
991	C	0.744141	0.710245	0.688409
992	C	0.722221	0.698954	0.983721
993	C	0.701747	0.713979	0.972123
994	C	0.756481	0.74217	0.76132
995	N	0.751267	0.76339	0.788952
996	C	0.732112	0.778177	0.776662
997	H	0.689338	0.707575	0.941911
998	H	0.724278	0.683039	0.960608
999	O	0.772736	0.726289	0.780496
1000	N	0.716656	0.770925	0.736102
1001	H	0.728068	0.793359	0.798981
1002	H	0.700834	0.779909	0.730363
1003	N	0.688083	0.759774	0.979588
1004	H	0.669122	0.747327	0.958231
1005	N	0.770005	0.701713	0.692685
1006	H	0.790847	0.71874	0.708443
1007	C	0.755036	0.960889	0.997232
1008	C	0.747063	0.970374	0.705903
1009	C	0.762786	0.50664	0.718079
1010	C	0.786742	0.53333	0.688449
1011	C	0.798047	0.522681	0.983791
1012	C	0.78299	0.987169	0.972226
1013	C	0.754863	0.513789	0.761403
1014	N	0.733612	0.48738	0.789042
1015	C	0.718862	0.953429	0.776805
1016	H	0.789448	0.981181	0.942034
1017	H	0.813963	0.540637	0.960665
1018	O	0.770634	0.545969	0.780456
1019	N	0.726105	0.945197	0.736258
1020	H	0.703622	0.934214	0.799107
1021	H	0.717122	0.92039	0.730542
1022	N	0.73718	0.927729	0.979711
1023	H	0.749663	0.921189	0.958433
1024	N	0.795248	0.567722	0.692665
1025	H	0.778198	0.571532	0.708366
1026	C	0.536056	0.79347	0.997252
1027	C	0.526567	0.775952	0.705886
1028	C	0.990304	0.755431	0.718089
1029	C	0.963609	0.752753	0.688502
1030	C	0.974271	0.774696	0.983841
1031	C	0.509769	0.795149	0.972263
1032	C	0.983164	0.740378	0.76143
1033	N	0.009586	0.745496	0.789019
1034	C	0.54353	0.764625	0.776736
1035	H	0.515816	0.807774	0.94219
1036	H	0.956298	0.772843	0.960857
1037	O	0.951006	0.724021	0.780536
1038	N	0.55175	0.780132	0.736208
1039	H	0.562746	0.768613	0.799041
1040	H	0.576559	0.79595	0.730486
1041	N	0.569206	0.808772	0.979721
1042	H	0.575776	0.827856	0.95852
1043	N	0.9292	0.72693	0.692801
1044	H	0.925366	0.706059	0.708499
