data_C564H480N96O24_2018-02-15_10:43:57
#******************************************
#
# CIF file created by Zeo++
# Zeo++ is an open source package to
# analyze microporous materials
#
#*******************************************

_cell_length_a		35.554   
_cell_length_b		35.554   
_cell_length_c		29.841   
_cell_angle_alpha		90   
_cell_angle_beta		90   
_cell_angle_gamma		89.9979   

_symmetry_space_group_name_H-M		'P1'
_symmetry_Int_Tables_number		1
_symmetry_cell_setting		Monoclinic

loop_
_symmetry_equiv_pos_as_xyz
'+x,+y,+z'

loop_
_atom_site_label
_atom_site_type_symbol
_atom_site_fract_x
_atom_site_fract_y
_atom_site_fract_z
1	C	0.003427	0.038797	0.322638
2	C	0.002803	0.035184	0.275252
3	C	0.003503	0.464165	0.279421
4	C	0.003656	0.464938	0.326965
5	C	0.004318	0.429116	0.01621
6	C	0.00395	0.393998	0.326292
7	C	0.00477	0.395463	0.279027
8	C	0.004145	0.429687	0.256021
9	C	0.001781	0.067324	0.247705
10	C	0.001116	0.103316	0.266279
11	C	0.001909	0.109221	0.312931
12	C	0.003268	0.07645	0.007343
13	C	0.466104	0.503704	0.043848
14	C	0.466874	0.502866	0.091371
15	C	0.038361	0.003601	0.092364
16	C	0.040241	0.003927	0.04484
17	C	0.071633	0.00381	0.118207
18	C	0.107103	0.004253	0.097865
19	C	0.111061	0.004443	0.05094
20	C	0.077243	0.004204	0.024947
21	C	0.42957	0.505038	0.022898
22	C	0.395054	0.504728	0.047519
23	C	0.398007	0.50396	0.094672
24	C	0.433013	0.502759	0.116142
25	H	0.374347	0.505192	0.114182
26	H	0.433576	0.502593	0.150461
27	H	0.070314	0.003504	0.152495
28	H	0.130365	0.004294	0.118176
29	H	0.079628	0.004093	0.324155
30	H	0.428029	0.506404	0.322068
31	H	0.004978	0.428551	0.05044
32	H	0.006197	0.371219	0.26056
33	H	0.004625	0.429192	0.221695
34	H	0.003628	0.080064	0.041314
35	H	0.001354	0.064826	0.213516
36	H	0.00062	0.12539	0.244458
37	C	0.003437	0.002984	0.01794
38	C	0.002359	0.502568	0.117352
39	H	0.001892	0.027033	0.13958
40	H	0.002391	0.477187	0.138109
41	C	0.00302	0.998586	0.251779
42	H	0.027851	0.497964	0.230106
43	H	0.477952	0.997371	0.230514
44	N	0.147422	0.004489	0.03763
45	N	0.001528	0.14612	0.990757
46	N	0.00735	0.359209	0.011559
47	N	0.360025	0.509785	0.029811
48	C	0.501915	0.233392	0.304577
49	C	0.503199	0.212483	0.012773
50	C	0.50043	0.235389	0.052252
51	N	0.99623	0.273788	0.050924
52	C	0.994848	0.292901	0.344868
53	N	0.997265	0.271429	0.30764
54	C	0.503615	0.219561	0.256319
55	C	0.004806	0.252238	0.22028
56	H	0.47977	0.270037	0.222143
57	H	0.006299	0.241072	0.186214
58	H	0.029278	0.27038	0.225315
59	C	0.466632	0.197451	0.24515
60	H	0.442466	0.216443	0.244563
61	H	0.459877	0.175916	0.269548
62	H	0.46861	0.184015	0.212325
63	C	0.040908	0.197153	0.24757
64	H	0.065282	0.215694	0.250619
65	H	0.041046	0.185138	0.21389
66	H	0.045561	0.17427	0.270839
67	O	0.500636	0.219676	0.093679
68	H	0.993135	0.287706	0.078818
69	C	0.508308	0.172718	0.01906
70	H	0.519567	0.164027	0.047691
71	C	0.985377	0.330663	0.337643
72	H	0.463778	0.334677	0.316897
73	C	0.275122	0.499494	0.315492
74	C	0.291811	0.499334	0.02597
75	C	0.265887	0.50236	0.062324
76	N	0.227833	0.004746	0.056102
77	C	0.21177	0.00412	0.01461
78	N	0.236513	0.001865	0.313186
79	C	0.296106	0.497548	0.271079
80	C	0.268594	0.994128	0.229905
81	H	0.251508	0.468659	0.232462
82	H	0.283992	0.492848	0.198266
83	H	0.249618	0.018266	0.228046
84	C	0.322737	0.462491	0.268561
85	H	0.307454	0.436907	0.277493
86	H	0.346853	0.465093	0.290759
87	H	0.334106	0.458826	0.234816
88	C	0.318978	0.034655	0.263853
89	H	0.300366	0.059104	0.264813
90	H	0.333269	0.034452	0.231432
91	H	0.340425	0.038582	0.289369
92	O	0.278219	0.502321	0.105361
93	H	0.21175	0.00635	0.082485
94	C	0.329574	0.490547	0.037476
95	H	0.332351	0.468707	0.058144
96	C	0.172519	0.005104	0.006328
97	H	0.163544	0.505831	0.308174
98	C	0.003427	0.038797	0.655973
99	C	0.002803	0.035184	0.608585
100	C	0.003503	0.464165	0.612754
101	C	0.003656	0.464938	0.660299
102	C	0.004318	0.429116	0.349542
103	C	0.00395	0.393998	0.659626
104	C	0.00477	0.395463	0.612362
105	C	0.004145	0.429687	0.589353
106	C	0.001781	0.067324	0.581039
107	C	0.001116	0.103316	0.599611
108	C	0.001909	0.109221	0.646265
109	C	0.003268	0.07645	0.340676
110	C	0.466104	0.503704	0.377182
111	C	0.466874	0.502866	0.424704
112	C	0.038361	0.003601	0.425696
113	C	0.040241	0.003927	0.378174
114	C	0.071633	0.00381	0.45154
115	C	0.107103	0.004253	0.431199
116	C	0.111061	0.004443	0.384273
117	C	0.077243	0.004204	0.358279
118	C	0.42957	0.505038	0.356231
119	C	0.395054	0.504728	0.380852
120	C	0.398007	0.50396	0.428005
121	C	0.433013	0.502759	0.449475
122	H	0.374347	0.505192	0.447515
123	H	0.433576	0.502593	0.483794
124	H	0.070314	0.003504	0.485828
125	H	0.130365	0.004294	0.45151
126	H	0.079628	0.004093	0.657488
127	H	0.428029	0.506404	0.6554
128	H	0.004978	0.428551	0.383774
129	H	0.006197	0.371219	0.593894
130	H	0.004625	0.429192	0.555028
131	H	0.003628	0.080064	0.374646
132	H	0.001354	0.064826	0.546848
133	H	0.00062	0.12539	0.577792
134	C	0.003437	0.002984	0.351275
135	C	0.002359	0.502568	0.450685
136	H	0.001892	0.027033	0.472913
137	H	0.002391	0.477187	0.471442
138	C	0.00302	0.998586	0.585114
139	H	0.027851	0.497964	0.563439
140	H	0.477952	0.997371	0.563848
141	N	0.147422	0.004489	0.370963
142	N	0.001528	0.14612	0.32409
143	N	0.00735	0.359209	0.344891
144	N	0.360025	0.509785	0.363145
145	C	0.501915	0.233392	0.637911
146	C	0.503199	0.212483	0.346108
147	C	0.50043	0.235389	0.385584
148	N	0.99623	0.273788	0.384256
149	C	0.994848	0.292901	0.678201
150	N	0.997265	0.271429	0.640974
151	C	0.503615	0.219561	0.589652
152	C	0.004806	0.252238	0.553614
153	H	0.47977	0.270037	0.555477
154	H	0.006299	0.241072	0.519547
155	H	0.029278	0.27038	0.558647
156	C	0.466632	0.197451	0.578482
157	H	0.442466	0.216443	0.577896
158	H	0.459877	0.175916	0.602882
159	H	0.46861	0.184015	0.545659
160	C	0.040908	0.197153	0.580902
161	H	0.065282	0.215694	0.583951
162	H	0.041046	0.185138	0.547223
163	H	0.045561	0.17427	0.604172
164	O	0.500636	0.219676	0.427013
165	H	0.993135	0.287706	0.412151
166	C	0.508308	0.172718	0.352394
167	H	0.519567	0.164027	0.381026
168	C	0.985377	0.330663	0.670976
169	H	0.463778	0.334677	0.650229
170	C	0.275122	0.499494	0.648825
171	C	0.291811	0.499334	0.359304
172	C	0.265887	0.50236	0.395657
173	N	0.227833	0.004746	0.389434
174	C	0.21177	0.00412	0.347944
175	N	0.236513	0.001865	0.64652
176	C	0.296106	0.497548	0.604413
177	C	0.268594	0.994128	0.563238
178	H	0.251508	0.468659	0.565795
179	H	0.283992	0.492848	0.531601
180	H	0.249618	0.018266	0.561379
181	C	0.322737	0.462491	0.601893
182	H	0.307454	0.436907	0.610827
183	H	0.346853	0.465093	0.624094
184	H	0.334106	0.458826	0.568151
185	C	0.318978	0.034655	0.597188
186	H	0.300366	0.059104	0.598147
187	H	0.333269	0.034452	0.564766
188	H	0.340425	0.038582	0.622704
189	O	0.278219	0.502321	0.438695
190	H	0.21175	0.00635	0.415817
191	C	0.329574	0.490547	0.370809
192	H	0.332351	0.468707	0.391478
193	C	0.172519	0.005104	0.339663
194	H	0.163544	0.505831	0.641507
195	C	0.003427	0.038797	0.989306
196	C	0.002803	0.035184	0.941919
197	C	0.003503	0.464165	0.946087
198	C	0.003656	0.464938	0.993633
199	C	0.004318	0.429116	0.682876
200	C	0.00395	0.393998	0.992959
201	C	0.00477	0.395463	0.945695
202	C	0.004145	0.429687	0.922687
203	C	0.001781	0.067324	0.914373
204	C	0.001116	0.103316	0.932944
205	C	0.001909	0.109221	0.979598
206	C	0.003268	0.07645	0.674009
207	C	0.466104	0.503704	0.710516
208	C	0.466874	0.502866	0.758037
209	C	0.038361	0.003601	0.759029
210	C	0.040241	0.003927	0.711507
211	C	0.071633	0.00381	0.784873
212	C	0.107103	0.004253	0.764532
213	C	0.111061	0.004443	0.717606
214	C	0.077243	0.004204	0.691615
215	C	0.42957	0.505038	0.689565
216	C	0.395054	0.504728	0.714185
217	C	0.398007	0.50396	0.761338
218	C	0.433013	0.502759	0.782809
219	H	0.374347	0.505192	0.780848
220	H	0.433576	0.502593	0.817127
221	H	0.070314	0.003504	0.819161
222	H	0.130365	0.004294	0.784843
223	H	0.079628	0.004093	0.990821
224	H	0.428029	0.506404	0.988733
225	H	0.004978	0.428551	0.717107
226	H	0.006197	0.371219	0.927227
227	H	0.004625	0.429192	0.888361
228	H	0.003628	0.080064	0.707979
229	H	0.001354	0.064826	0.880181
230	H	0.00062	0.12539	0.911125
231	C	0.003437	0.002984	0.684608
232	C	0.002359	0.502568	0.784018
233	H	0.001892	0.027033	0.806246
234	H	0.002391	0.477187	0.804775
235	C	0.00302	0.998586	0.918448
236	H	0.027851	0.497964	0.896773
237	H	0.477952	0.997371	0.897182
238	N	0.147422	0.004489	0.704296
239	N	0.001528	0.14612	0.657424
240	N	0.00735	0.359209	0.678224
241	N	0.360025	0.509785	0.696478
242	C	0.501915	0.233392	0.971244
243	C	0.503199	0.212483	0.679441
244	C	0.50043	0.235389	0.718917
245	N	0.99623	0.273788	0.71759
246	C	0.994848	0.292901	0.011536
247	N	0.997265	0.271429	0.974307
248	C	0.503615	0.219561	0.922985
249	C	0.004806	0.252238	0.886947
250	H	0.47977	0.270037	0.88881
251	H	0.006299	0.241072	0.85288
252	H	0.029278	0.27038	0.891981
253	C	0.466632	0.197451	0.911816
254	H	0.442466	0.216443	0.911229
255	H	0.459877	0.175916	0.936215
256	H	0.46861	0.184015	0.878992
257	C	0.040908	0.197153	0.914235
258	H	0.065282	0.215694	0.917285
259	H	0.041046	0.185138	0.880557
260	H	0.045561	0.17427	0.937505
261	O	0.500636	0.219676	0.760346
262	H	0.993135	0.287706	0.745484
263	C	0.508308	0.172718	0.685728
264	H	0.519567	0.164027	0.714359
265	C	0.985377	0.330663	0.004308
266	H	0.463778	0.334677	0.983563
267	C	0.275122	0.499494	0.982159
268	C	0.291811	0.499334	0.692637
269	C	0.265887	0.50236	0.72899
270	N	0.227833	0.004746	0.722767
271	C	0.21177	0.00412	0.681277
272	N	0.236513	0.001865	0.979853
273	C	0.296106	0.497548	0.937747
274	C	0.268594	0.994128	0.896572
275	H	0.251508	0.468659	0.899129
276	H	0.283992	0.492848	0.864934
277	H	0.249618	0.018266	0.894712
278	C	0.322737	0.462491	0.935226
279	H	0.307454	0.436907	0.94416
280	H	0.346853	0.465093	0.957427
281	H	0.334106	0.458826	0.901484
282	C	0.318978	0.034655	0.930522
283	H	0.300366	0.059104	0.93148
284	H	0.333269	0.034452	0.8981
285	H	0.340425	0.038582	0.956037
286	O	0.278219	0.502321	0.772028
287	H	0.21175	0.00635	0.74915
288	C	0.329574	0.490547	0.704142
289	H	0.332351	0.468707	0.724811
290	C	0.172519	0.005104	0.672997
291	H	0.163544	0.505831	0.97484
292	C	0.003422	0.538797	0.322638
293	C	0.002796	0.535183	0.275252
294	C	0.00351	0.964165	0.279421
295	C	0.003661	0.964935	0.326966
296	C	0.004322	0.929117	0.01621
297	C	0.003954	0.893995	0.326292
298	C	0.004776	0.895464	0.279028
299	C	0.004152	0.929688	0.256022
300	C	0.001774	0.567323	0.247704
301	C	0.001109	0.603316	0.266278
302	C	0.001905	0.609223	0.312931
303	C	0.003263	0.57645	0.007342
304	C	0.466108	0.003704	0.043848
305	C	0.466879	0.002866	0.091372
306	C	0.038356	0.5036	0.092363
307	C	0.040236	0.503927	0.044839
308	C	0.071629	0.503808	0.118206
309	C	0.107099	0.504253	0.097864
310	C	0.111056	0.504444	0.050939
311	C	0.077238	0.504205	0.024946
312	C	0.429575	0.005038	0.022898
313	C	0.395058	0.004728	0.047519
314	C	0.398011	0.003959	0.094671
315	C	0.433015	0.00276	0.116141
316	H	0.374352	0.005192	0.114181
317	H	0.43358	0.002594	0.150461
318	H	0.07031	0.503505	0.152493
319	H	0.13036	0.504295	0.118174
320	H	0.079623	0.504093	0.324153
321	H	0.428033	0.006403	0.322067
322	H	0.004982	0.928551	0.05044
323	H	0.006203	0.871219	0.260561
324	H	0.004632	0.929193	0.221695
325	H	0.003625	0.580064	0.041313
326	H	0.001347	0.564826	0.213515
327	H	0.000613	0.62539	0.244457
328	C	0.003432	0.502984	0.01794
329	C	0.002363	0.002568	0.117352
330	H	0.001888	0.527032	0.13958
331	H	0.002392	0.977184	0.13811
332	C	0.003013	0.498585	0.251779
333	H	0.027859	0.997964	0.230107
334	H	0.477942	0.49737	0.230515
335	N	0.147417	0.504489	0.037628
336	N	0.001524	0.646119	0.990757
337	N	0.007354	0.859209	0.01156
338	N	0.36003	0.009786	0.02981
339	C	0.501917	0.733392	0.304577
340	C	0.503197	0.712483	0.012772
341	C	0.500429	0.735389	0.052251
342	N	0.996231	0.773787	0.050924
343	C	0.99485	0.792901	0.344871
344	N	0.997266	0.77143	0.30764
345	C	0.503616	0.719562	0.256319
346	C	0.004808	0.752239	0.22028
347	H	0.479772	0.77004	0.222143
348	H	0.006301	0.741073	0.186214
349	H	0.029281	0.770378	0.225315
350	C	0.466631	0.697455	0.24515
351	H	0.442464	0.716446	0.244563
352	H	0.459873	0.675919	0.269547
353	H	0.468609	0.684016	0.212325
354	C	0.040907	0.697151	0.24757
355	H	0.065282	0.715692	0.250619
356	H	0.041045	0.685138	0.213889
357	H	0.045559	0.674268	0.270838
358	O	0.500635	0.719675	0.093679
359	H	0.993137	0.787706	0.078818
360	C	0.508307	0.672718	0.01906
361	H	0.519569	0.664027	0.047689
362	C	0.985378	0.830666	0.337643
363	H	0.46378	0.83468	0.316897
364	C	0.275126	0.999494	0.315491
365	C	0.291815	0.999334	0.025969
366	C	0.265892	0.00236	0.062324
367	N	0.227829	0.504745	0.056101
368	C	0.211765	0.504121	0.014609
369	N	0.236509	0.501865	0.313186
370	C	0.296107	0.997548	0.271078
371	C	0.268592	0.49413	0.229905
372	H	0.25151	0.968656	0.232463
373	H	0.283994	0.992848	0.198265
374	H	0.249615	0.518265	0.228046
375	C	0.322739	0.962488	0.26856
376	H	0.307459	0.936905	0.277492
377	H	0.346857	0.96509	0.290758
378	H	0.334107	0.958826	0.234815
379	C	0.318974	0.534657	0.263855
380	H	0.300362	0.559105	0.264814
381	H	0.333265	0.534455	0.231433
382	H	0.34042	0.538584	0.289371
383	O	0.278225	0.002321	0.10536
384	H	0.211745	0.506351	0.082484
385	C	0.329578	0.990547	0.037475
386	H	0.332355	0.968707	0.058142
387	C	0.172515	0.505105	0.006327
388	H	0.163548	0.005831	0.308175
389	C	0.003422	0.538797	0.65597
390	C	0.002796	0.535183	0.608585
391	C	0.00351	0.964165	0.612754
392	C	0.003661	0.964935	0.660299
393	C	0.004322	0.929117	0.349542
394	C	0.003954	0.893995	0.659626
395	C	0.004776	0.895464	0.612362
396	C	0.004152	0.929688	0.589357
397	C	0.001774	0.567323	0.581039
398	C	0.001109	0.603316	0.599611
399	C	0.001905	0.609223	0.646265
400	C	0.003263	0.57645	0.340676
401	C	0.466108	0.003704	0.377182
402	C	0.466879	0.002866	0.424704
403	C	0.038356	0.5036	0.425696
404	C	0.040236	0.503927	0.378171
405	C	0.071629	0.503808	0.45154
406	C	0.107099	0.504253	0.431199
407	C	0.111056	0.504444	0.384273
408	C	0.077238	0.504205	0.358279
409	C	0.429575	0.005038	0.356231
410	C	0.395058	0.004728	0.380852
411	C	0.398011	0.003959	0.428005
412	C	0.433015	0.00276	0.449475
413	H	0.374352	0.005192	0.447515
414	H	0.43358	0.002594	0.483794
415	H	0.07031	0.503505	0.485828
416	H	0.13036	0.504295	0.451506
417	H	0.079623	0.504093	0.657488
418	H	0.428033	0.006403	0.6554
419	H	0.004982	0.928551	0.383774
420	H	0.006203	0.871219	0.593894
421	H	0.004632	0.929193	0.555028
422	H	0.003625	0.580064	0.374646
423	H	0.001347	0.564826	0.546848
424	H	0.000613	0.62539	0.577792
425	C	0.003432	0.502984	0.351275
426	C	0.002363	0.002568	0.450685
427	H	0.001888	0.527032	0.472913
428	H	0.002392	0.977184	0.471442
429	C	0.003013	0.498585	0.585111
430	H	0.027859	0.997964	0.563439
431	H	0.477942	0.49737	0.563848
432	N	0.147417	0.504489	0.370963
433	N	0.001524	0.646119	0.324089
434	N	0.007354	0.859209	0.344895
435	N	0.36003	0.009786	0.363145
436	C	0.501917	0.733392	0.637911
437	C	0.503197	0.712483	0.346104
438	C	0.500429	0.735389	0.385584
439	N	0.996231	0.773787	0.384256
440	C	0.99485	0.792901	0.678204
441	N	0.997266	0.77143	0.640974
442	C	0.503616	0.719562	0.589652
443	C	0.004808	0.752239	0.553614
444	H	0.479772	0.77004	0.555477
445	H	0.006301	0.741073	0.519547
446	H	0.029281	0.770378	0.558647
447	C	0.466631	0.697455	0.578482
448	H	0.442464	0.716446	0.577896
449	H	0.459873	0.675919	0.602882
450	H	0.468609	0.684016	0.545659
451	C	0.040907	0.697151	0.580902
452	H	0.065282	0.715692	0.583951
453	H	0.041045	0.685138	0.547223
454	H	0.045559	0.674268	0.604172
455	O	0.500635	0.719675	0.427013
456	H	0.993137	0.787706	0.412151
457	C	0.508307	0.672718	0.352394
458	H	0.519569	0.664027	0.381023
459	C	0.985378	0.830666	0.670976
460	H	0.46378	0.83468	0.650229
461	C	0.275126	0.999494	0.648825
462	C	0.291815	0.999334	0.359301
463	C	0.265892	0.00236	0.395657
464	N	0.227829	0.504745	0.389434
465	C	0.211765	0.504121	0.347944
466	N	0.236509	0.501865	0.64652
467	C	0.296107	0.997548	0.60441
468	C	0.268592	0.49413	0.563238
469	H	0.25151	0.968656	0.565795
470	H	0.283994	0.992848	0.531597
471	H	0.249615	0.518265	0.561379
472	C	0.322739	0.962488	0.601893
473	H	0.307459	0.936905	0.610824
474	H	0.346857	0.96509	0.624091
475	H	0.334107	0.958826	0.568148
476	C	0.318974	0.534657	0.597188
477	H	0.300362	0.559105	0.598147
478	H	0.333265	0.534455	0.564766
479	H	0.34042	0.538584	0.622704
480	O	0.278225	0.002321	0.438695
481	H	0.211745	0.506351	0.415817
482	C	0.329578	0.990547	0.370809
483	H	0.332355	0.968707	0.391475
484	C	0.172515	0.505105	0.33966
485	H	0.163548	0.005831	0.64151
486	C	0.003422	0.538797	0.989306
487	C	0.002796	0.535183	0.941919
488	C	0.00351	0.964165	0.946087
489	C	0.003661	0.964935	0.993633
490	C	0.004322	0.929117	0.682876
491	C	0.003954	0.893995	0.992959
492	C	0.004776	0.895464	0.945695
493	C	0.004152	0.929688	0.92269
494	C	0.001774	0.567323	0.914373
495	C	0.001109	0.603316	0.932944
496	C	0.001905	0.609223	0.979598
497	C	0.003263	0.57645	0.674009
498	C	0.466108	0.003704	0.710516
499	C	0.466879	0.002866	0.758037
500	C	0.038356	0.5036	0.759029
501	C	0.040236	0.503927	0.711507
502	C	0.071629	0.503808	0.784873
503	C	0.107099	0.504253	0.764532
504	C	0.111056	0.504444	0.717606
505	C	0.077238	0.504205	0.691612
506	C	0.429575	0.005038	0.689565
507	C	0.395058	0.004728	0.714185
508	C	0.398011	0.003959	0.761338
509	C	0.433015	0.00276	0.782809
510	H	0.374352	0.005192	0.780848
511	H	0.43358	0.002594	0.817127
512	H	0.07031	0.503505	0.819161
513	H	0.13036	0.504295	0.784839
514	H	0.079623	0.504093	0.990821
515	H	0.428033	0.006403	0.988733
516	H	0.004982	0.928551	0.717107
517	H	0.006203	0.871219	0.927227
518	H	0.004632	0.929193	0.888361
519	H	0.003625	0.580064	0.707979
520	H	0.001347	0.564826	0.880181
521	H	0.000613	0.62539	0.911125
522	C	0.003432	0.502984	0.684608
523	C	0.002363	0.002568	0.784018
524	H	0.001888	0.527032	0.806246
525	H	0.002392	0.977184	0.804775
526	C	0.003013	0.498585	0.918444
527	H	0.027859	0.997964	0.896773
528	H	0.477942	0.49737	0.897182
529	N	0.147417	0.504489	0.704296
530	N	0.001524	0.646119	0.657424
531	N	0.007354	0.859209	0.678228
532	N	0.36003	0.009786	0.696478
533	C	0.501917	0.733392	0.971244
534	C	0.503197	0.712483	0.679438
535	C	0.500429	0.735389	0.718917
536	N	0.996231	0.773787	0.71759
537	C	0.99485	0.792901	0.011536
538	N	0.997266	0.77143	0.974307
539	C	0.503616	0.719562	0.922985
540	C	0.004808	0.752239	0.886947
541	H	0.479772	0.77004	0.88881
542	H	0.006301	0.741073	0.85288
543	H	0.029281	0.770378	0.891981
544	C	0.466631	0.697455	0.911816
545	H	0.442464	0.716446	0.911229
546	H	0.459873	0.675919	0.936215
547	H	0.468609	0.684016	0.878992
548	C	0.040907	0.697151	0.914235
549	H	0.065282	0.715692	0.917285
550	H	0.041045	0.685138	0.880557
551	H	0.045559	0.674268	0.937505
552	O	0.500635	0.719675	0.760346
553	H	0.993137	0.787706	0.745484
554	C	0.508307	0.672718	0.685728
555	H	0.519569	0.664027	0.714356
556	C	0.985378	0.830666	0.004309
557	H	0.46378	0.83468	0.983563
558	C	0.275126	0.999494	0.982159
559	C	0.291815	0.999334	0.692637
560	C	0.265892	0.00236	0.72899
561	N	0.227829	0.504745	0.722767
562	C	0.211765	0.504121	0.681277
563	N	0.236509	0.501865	0.979853
564	C	0.296107	0.997548	0.937747
565	C	0.268592	0.49413	0.896572
566	H	0.25151	0.968656	0.899129
567	H	0.283994	0.992848	0.864931
568	H	0.249615	0.518265	0.894712
569	C	0.322739	0.962488	0.935226
570	H	0.307459	0.936905	0.944157
571	H	0.346857	0.96509	0.957424
572	H	0.334107	0.958826	0.901481
573	C	0.318974	0.534657	0.930522
574	H	0.300362	0.559105	0.93148
575	H	0.333265	0.534455	0.8981
576	H	0.34042	0.538584	0.956037
577	O	0.278225	0.002321	0.772028
578	H	0.211745	0.506351	0.74915
579	C	0.329578	0.990547	0.704142
580	H	0.332355	0.968707	0.724808
581	C	0.172515	0.505105	0.672993
582	H	0.163548	0.005831	0.974843
583	C	0.503427	0.038797	0.322638
584	C	0.502803	0.035184	0.275252
585	C	0.503505	0.464165	0.279421
586	C	0.503656	0.464938	0.326965
587	C	0.504319	0.429116	0.01621
588	C	0.503949	0.393998	0.326292
589	C	0.50477	0.395463	0.279027
590	C	0.504144	0.429687	0.256021
591	C	0.501781	0.067324	0.247705
592	C	0.501116	0.103316	0.266279
593	C	0.501909	0.109221	0.312931
594	C	0.503268	0.07645	0.007343
595	C	0.966101	0.503704	0.043848
596	C	0.966875	0.502866	0.091371
597	C	0.538361	0.003601	0.092364
598	C	0.54024	0.003927	0.04484
599	C	0.571632	0.00381	0.118207
600	C	0.607102	0.004253	0.097865
601	C	0.611062	0.004443	0.05094
602	C	0.577243	0.004204	0.024947
603	C	0.929568	0.505038	0.022898
604	C	0.895054	0.504728	0.047519
605	C	0.898007	0.50396	0.094672
606	C	0.933011	0.502759	0.116142
607	H	0.874348	0.505192	0.114182
608	H	0.933576	0.502593	0.150461
609	H	0.570313	0.003504	0.152495
610	H	0.630365	0.004294	0.118176
611	H	0.579628	0.004093	0.324155
612	H	0.928029	0.506404	0.322068
613	H	0.504977	0.428551	0.05044
614	H	0.506197	0.371219	0.26056
615	H	0.504625	0.429192	0.221695
616	H	0.503628	0.080064	0.041314
617	H	0.501354	0.064826	0.213516
618	H	0.50062	0.12539	0.244458
619	C	0.503437	0.002984	0.01794
620	C	0.502358	0.502568	0.117352
621	H	0.501892	0.027033	0.13958
622	H	0.50239	0.477187	0.138109
623	C	0.503021	0.998586	0.251779
624	H	0.527852	0.497964	0.230106
625	H	0.977952	0.997371	0.230514
626	N	0.647421	0.004489	0.03763
627	N	0.501528	0.14612	0.990757
628	N	0.50735	0.359209	0.011559
629	N	0.860026	0.509785	0.029811
630	C	0.001916	0.233392	0.304577
631	C	0.003199	0.212483	0.012773
632	C	0.000431	0.235389	0.052252
633	N	0.49623	0.273788	0.050924
634	C	0.494848	0.292901	0.344868
635	N	0.497268	0.271429	0.30764
636	C	0.003616	0.219561	0.256319
637	C	0.504806	0.252238	0.22028
638	H	0.979771	0.270037	0.222143
639	H	0.5063	0.241072	0.186214
640	H	0.529278	0.27038	0.225315
641	C	0.96663	0.197451	0.24515
642	H	0.942463	0.216443	0.244563
643	H	0.959875	0.175916	0.269548
644	H	0.96861	0.184015	0.212325
645	C	0.540908	0.197153	0.24757
646	H	0.565282	0.215694	0.250619
647	H	0.541046	0.185138	0.21389
648	H	0.545561	0.17427	0.270839
649	O	0.000636	0.219676	0.093679
650	H	0.493135	0.287706	0.078818
651	C	0.008307	0.172718	0.01906
652	H	0.019568	0.164027	0.047691
653	C	0.485376	0.330663	0.337643
654	H	0.963778	0.334677	0.316897
655	C	0.775121	0.499494	0.315492
656	C	0.791811	0.499334	0.02597
657	C	0.765887	0.50236	0.062324
658	N	0.727834	0.004746	0.056102
659	C	0.711768	0.00412	0.01461
660	N	0.736514	0.001865	0.313186
661	C	0.796106	0.497548	0.271079
662	C	0.768595	0.994128	0.229905
663	H	0.751508	0.468659	0.232462
664	H	0.783992	0.492848	0.198266
665	H	0.749617	0.018266	0.228046
666	C	0.822737	0.462491	0.268561
667	H	0.807455	0.436907	0.277493
668	H	0.846853	0.465093	0.290759
669	H	0.834106	0.458826	0.234816
670	C	0.818979	0.034655	0.263853
671	H	0.800364	0.059104	0.264813
672	H	0.83327	0.034452	0.231432
673	H	0.840425	0.038582	0.289369
674	O	0.778218	0.502321	0.105361
675	H	0.711751	0.00635	0.082485
676	C	0.829574	0.490547	0.037476
677	H	0.832351	0.468707	0.058144
678	C	0.672518	0.005104	0.006328
679	H	0.663544	0.505831	0.308174
680	C	0.503427	0.038797	0.655973
681	C	0.502803	0.035184	0.608585
682	C	0.503505	0.464165	0.612754
683	C	0.503656	0.464938	0.660299
684	C	0.504319	0.429116	0.349542
685	C	0.503949	0.393998	0.659626
686	C	0.50477	0.395463	0.612362
687	C	0.504144	0.429687	0.589353
688	C	0.501781	0.067324	0.581039
689	C	0.501116	0.103316	0.599611
690	C	0.501909	0.109221	0.646265
691	C	0.503268	0.07645	0.340676
692	C	0.966101	0.503704	0.377182
693	C	0.966875	0.502866	0.424704
694	C	0.538361	0.003601	0.425696
695	C	0.54024	0.003927	0.378174
696	C	0.571632	0.00381	0.45154
697	C	0.607102	0.004253	0.431199
698	C	0.611062	0.004443	0.384273
699	C	0.577243	0.004204	0.358279
700	C	0.929568	0.505038	0.356231
701	C	0.895054	0.504728	0.380852
702	C	0.898007	0.50396	0.428005
703	C	0.933011	0.502759	0.449475
704	H	0.874348	0.505192	0.447515
705	H	0.933576	0.502593	0.483794
706	H	0.570313	0.003504	0.485828
707	H	0.630365	0.004294	0.45151
708	H	0.579628	0.004093	0.657488
709	H	0.928029	0.506404	0.6554
710	H	0.504977	0.428551	0.383774
711	H	0.506197	0.371219	0.593894
712	H	0.504625	0.429192	0.555028
713	H	0.503628	0.080064	0.374646
714	H	0.501354	0.064826	0.546848
715	H	0.50062	0.12539	0.577792
716	C	0.503437	0.002984	0.351275
717	C	0.502358	0.502568	0.450685
718	H	0.501892	0.027033	0.472913
719	H	0.50239	0.477187	0.471442
720	C	0.503021	0.998586	0.585114
721	H	0.527852	0.497964	0.563439
722	H	0.977952	0.997371	0.563848
723	N	0.647421	0.004489	0.370963
724	N	0.501528	0.14612	0.32409
725	N	0.50735	0.359209	0.344891
726	N	0.860026	0.509785	0.363145
727	C	0.001916	0.233392	0.637911
728	C	0.003199	0.212483	0.346108
729	C	0.000431	0.235389	0.385584
730	N	0.49623	0.273788	0.384256
731	C	0.494848	0.292901	0.678201
732	N	0.497268	0.271429	0.640974
733	C	0.003616	0.219561	0.589652
734	C	0.504806	0.252238	0.553614
735	H	0.979771	0.270037	0.555477
736	H	0.5063	0.241072	0.519547
737	H	0.529278	0.27038	0.558647
738	C	0.96663	0.197451	0.578482
739	H	0.942463	0.216443	0.577896
740	H	0.959875	0.175916	0.602882
741	H	0.96861	0.184015	0.545659
742	C	0.540908	0.197153	0.580902
743	H	0.565282	0.215694	0.583951
744	H	0.541046	0.185138	0.547223
745	H	0.545561	0.17427	0.604172
746	O	0.000636	0.219676	0.427013
747	H	0.493135	0.287706	0.412151
748	C	0.008307	0.172718	0.352394
749	H	0.019568	0.164027	0.381026
750	C	0.485376	0.330663	0.670976
751	H	0.963778	0.334677	0.650229
752	C	0.775121	0.499494	0.648825
753	C	0.791811	0.499334	0.359304
754	C	0.765887	0.50236	0.395657
755	N	0.727834	0.004746	0.389434
756	C	0.711768	0.00412	0.347944
757	N	0.736514	0.001865	0.64652
758	C	0.796106	0.497548	0.604413
759	C	0.768595	0.994128	0.563238
760	H	0.751508	0.468659	0.565795
761	H	0.783992	0.492848	0.531601
762	H	0.749617	0.018266	0.561379
763	C	0.822737	0.462491	0.601893
764	H	0.807455	0.436907	0.610827
765	H	0.846853	0.465093	0.624094
766	H	0.834106	0.458826	0.568151
767	C	0.818979	0.034655	0.597188
768	H	0.800364	0.059104	0.598147
769	H	0.83327	0.034452	0.564766
770	H	0.840425	0.038582	0.622704
771	O	0.778218	0.502321	0.438695
772	H	0.711751	0.00635	0.415817
773	C	0.829574	0.490547	0.370809
774	H	0.832351	0.468707	0.391478
775	C	0.672518	0.005104	0.339663
776	H	0.663544	0.505831	0.641507
777	C	0.503427	0.038797	0.989306
778	C	0.502803	0.035184	0.941919
779	C	0.503505	0.464165	0.946087
780	C	0.503656	0.464938	0.993633
781	C	0.504319	0.429116	0.682876
782	C	0.503949	0.393998	0.992959
783	C	0.50477	0.395463	0.945695
784	C	0.504144	0.429687	0.922687
785	C	0.501781	0.067324	0.914373
786	C	0.501116	0.103316	0.932944
787	C	0.501909	0.109221	0.979598
788	C	0.503268	0.07645	0.674009
789	C	0.966101	0.503704	0.710516
790	C	0.966875	0.502866	0.758037
791	C	0.538361	0.003601	0.759029
792	C	0.54024	0.003927	0.711507
793	C	0.571632	0.00381	0.784873
794	C	0.607102	0.004253	0.764532
795	C	0.611062	0.004443	0.717606
796	C	0.577243	0.004204	0.691615
797	C	0.929568	0.505038	0.689565
798	C	0.895054	0.504728	0.714185
799	C	0.898007	0.50396	0.761338
800	C	0.933011	0.502759	0.782809
801	H	0.874348	0.505192	0.780848
802	H	0.933576	0.502593	0.817127
803	H	0.570313	0.003504	0.819161
804	H	0.630365	0.004294	0.784843
805	H	0.579628	0.004093	0.990821
806	H	0.928029	0.506404	0.988733
807	H	0.504977	0.428551	0.717107
808	H	0.506197	0.371219	0.927227
809	H	0.504625	0.429192	0.888361
810	H	0.503628	0.080064	0.707979
811	H	0.501354	0.064826	0.880181
812	H	0.50062	0.12539	0.911125
813	C	0.503437	0.002984	0.684608
814	C	0.502358	0.502568	0.784018
815	H	0.501892	0.027033	0.806246
816	H	0.50239	0.477187	0.804775
817	C	0.503021	0.998586	0.918448
818	H	0.527852	0.497964	0.896773
819	H	0.977952	0.997371	0.897182
820	N	0.647421	0.004489	0.704296
821	N	0.501528	0.14612	0.657424
822	N	0.50735	0.359209	0.678224
823	N	0.860026	0.509785	0.696478
824	C	0.001916	0.233392	0.971244
825	C	0.003199	0.212483	0.679441
826	C	0.000431	0.235389	0.718917
827	N	0.49623	0.273788	0.71759
828	C	0.494848	0.292901	0.011536
829	N	0.497268	0.271429	0.974307
830	C	0.003616	0.219561	0.922985
831	C	0.504806	0.252238	0.886947
832	H	0.979771	0.270037	0.88881
833	H	0.5063	0.241072	0.85288
834	H	0.529278	0.27038	0.891981
835	C	0.96663	0.197451	0.911816
836	H	0.942463	0.216443	0.911229
837	H	0.959875	0.175916	0.936215
838	H	0.96861	0.184015	0.878992
839	C	0.540908	0.197153	0.914235
840	H	0.565282	0.215694	0.917285
841	H	0.541046	0.185138	0.880557
842	H	0.545561	0.17427	0.937505
843	O	0.000636	0.219676	0.760346
844	H	0.493135	0.287706	0.745484
845	C	0.008307	0.172718	0.685728
846	H	0.019568	0.164027	0.714359
847	C	0.485376	0.330663	0.004308
848	H	0.963778	0.334677	0.983563
849	C	0.775121	0.499494	0.982159
850	C	0.791811	0.499334	0.692637
851	C	0.765887	0.50236	0.72899
852	N	0.727834	0.004746	0.722767
853	C	0.711768	0.00412	0.681277
854	N	0.736514	0.001865	0.979853
855	C	0.796106	0.497548	0.937747
856	C	0.768595	0.994128	0.896572
857	H	0.751508	0.468659	0.899129
858	H	0.783992	0.492848	0.864934
859	H	0.749617	0.018266	0.894712
860	C	0.822737	0.462491	0.935226
861	H	0.807455	0.436907	0.94416
862	H	0.846853	0.465093	0.957427
863	H	0.834106	0.458826	0.901484
864	C	0.818979	0.034655	0.930522
865	H	0.800364	0.059104	0.93148
866	H	0.83327	0.034452	0.8981
867	H	0.840425	0.038582	0.956037
868	O	0.778218	0.502321	0.772028
869	H	0.711751	0.00635	0.74915
870	C	0.829574	0.490547	0.704142
871	H	0.832351	0.468707	0.724811
872	C	0.672518	0.005104	0.672997
873	H	0.663544	0.505831	0.97484
874	C	0.503423	0.538797	0.322638
875	C	0.502796	0.535183	0.275252
876	C	0.503509	0.964165	0.279421
877	C	0.503661	0.964935	0.326966
878	C	0.504323	0.929117	0.01621
879	C	0.503953	0.893995	0.326292
880	C	0.504777	0.895464	0.279028
881	C	0.504151	0.929688	0.256022
882	C	0.501774	0.567323	0.247704
883	C	0.501112	0.603316	0.266278
884	C	0.501905	0.609223	0.312931
885	C	0.503264	0.57645	0.007342
886	C	0.966108	0.003704	0.043848
887	C	0.966879	0.002866	0.091372
888	C	0.538357	0.5036	0.092363
889	C	0.540236	0.503927	0.044839
890	C	0.571628	0.503808	0.118206
891	C	0.607098	0.504253	0.097864
892	C	0.611055	0.504444	0.050939
893	C	0.577239	0.504205	0.024946
894	C	0.929575	0.005038	0.022898
895	C	0.895058	0.004728	0.047519
896	C	0.898012	0.003959	0.094671
897	C	0.933015	0.00276	0.116141
898	H	0.874352	0.005192	0.114181
899	H	0.933577	0.002594	0.150461
900	H	0.570311	0.503505	0.152493
901	H	0.630361	0.504295	0.118174
902	H	0.579624	0.504093	0.324153
903	H	0.928034	0.006403	0.322067
904	H	0.504981	0.928551	0.05044
905	H	0.506204	0.871219	0.260561
906	H	0.504632	0.929193	0.221695
907	H	0.503624	0.580064	0.041313
908	H	0.501346	0.564826	0.213515
909	H	0.500613	0.62539	0.244457
910	C	0.503433	0.502984	0.01794
911	C	0.502363	0.002568	0.117352
912	H	0.501888	0.527032	0.13958
913	H	0.502394	0.977184	0.13811
914	C	0.503014	0.498585	0.251779
915	H	0.527859	0.997964	0.230107
916	H	0.977942	0.49737	0.230515
917	N	0.647417	0.504489	0.037628
918	N	0.501523	0.646119	0.990757
919	N	0.507355	0.859209	0.01156
920	N	0.86003	0.009786	0.02981
921	C	0.001917	0.733392	0.304577
922	C	0.003199	0.712483	0.012772
923	C	0.000429	0.735389	0.052251
924	N	0.496231	0.773787	0.050924
925	C	0.494849	0.792901	0.344871
926	N	0.497266	0.77143	0.30764
927	C	0.003616	0.719562	0.256319
928	C	0.504808	0.752239	0.22028
929	H	0.979772	0.77004	0.222143
930	H	0.506301	0.741073	0.186214
931	H	0.52928	0.770378	0.225315
932	C	0.966631	0.697455	0.24515
933	H	0.942464	0.716446	0.244563
934	H	0.959873	0.675919	0.269547
935	H	0.968609	0.684016	0.212325
936	C	0.540907	0.697151	0.24757
937	H	0.56528	0.715692	0.250619
938	H	0.541045	0.685138	0.213889
939	H	0.54556	0.674268	0.270838
940	O	0.000635	0.719675	0.093679
941	H	0.493137	0.787706	0.078818
942	C	0.008306	0.672718	0.01906
943	H	0.019568	0.664027	0.047689
944	C	0.485378	0.830666	0.337643
945	H	0.96378	0.83468	0.316897
946	C	0.775125	0.999494	0.315491
947	C	0.791816	0.999334	0.025969
948	C	0.765891	0.00236	0.062324
949	N	0.72783	0.504745	0.056101
950	C	0.711764	0.504121	0.014609
951	N	0.736509	0.501865	0.313186
952	C	0.796108	0.997548	0.271078
953	C	0.768591	0.49413	0.229905
954	H	0.751509	0.968656	0.232463
955	H	0.783994	0.992848	0.198265
956	H	0.749616	0.518265	0.228046
957	C	0.822739	0.962488	0.26856
958	H	0.807459	0.936905	0.277492
959	H	0.846857	0.96509	0.290758
960	H	0.834108	0.958826	0.234815
961	C	0.818974	0.534657	0.263855
962	H	0.80036	0.559105	0.264814
963	H	0.833265	0.534455	0.231433
964	H	0.84042	0.538584	0.289371
965	O	0.778225	0.002321	0.10536
966	H	0.711744	0.506351	0.082484
967	C	0.829578	0.990547	0.037475
968	H	0.832355	0.968707	0.058142
969	C	0.672514	0.505105	0.006327
970	H	0.663548	0.005831	0.308175
971	C	0.503423	0.538797	0.65597
972	C	0.502796	0.535183	0.608585
973	C	0.503509	0.964165	0.612754
974	C	0.503661	0.964935	0.660299
975	C	0.504323	0.929117	0.349542
976	C	0.503953	0.893995	0.659626
977	C	0.504777	0.895464	0.612362
978	C	0.504151	0.929688	0.589357
979	C	0.501774	0.567323	0.581039
980	C	0.501112	0.603316	0.599611
981	C	0.501905	0.609223	0.646265
982	C	0.503264	0.57645	0.340676
983	C	0.966108	0.003704	0.377182
984	C	0.966879	0.002866	0.424704
985	C	0.538357	0.5036	0.425696
986	C	0.540236	0.503927	0.378171
987	C	0.571628	0.503808	0.45154
988	C	0.607098	0.504253	0.431199
989	C	0.611055	0.504444	0.384273
990	C	0.577239	0.504205	0.358279
991	C	0.929575	0.005038	0.356231
992	C	0.895058	0.004728	0.380852
993	C	0.898012	0.003959	0.428005
994	C	0.933015	0.00276	0.449475
995	H	0.874352	0.005192	0.447515
996	H	0.933577	0.002594	0.483794
997	H	0.570311	0.503505	0.485828
998	H	0.630361	0.504295	0.451506
999	H	0.579624	0.504093	0.657488
1000	H	0.928034	0.006403	0.6554
1001	H	0.504981	0.928551	0.383774
1002	H	0.506204	0.871219	0.593894
1003	H	0.504632	0.929193	0.555028
1004	H	0.503624	0.580064	0.374646
1005	H	0.501346	0.564826	0.546848
1006	H	0.500613	0.62539	0.577792
1007	C	0.503433	0.502984	0.351275
1008	C	0.502363	0.002568	0.450685
1009	H	0.501888	0.527032	0.472913
1010	H	0.502394	0.977184	0.471442
1011	C	0.503014	0.498585	0.585111
1012	H	0.527859	0.997964	0.563439
1013	H	0.977942	0.49737	0.563848
1014	N	0.647417	0.504489	0.370963
1015	N	0.501523	0.646119	0.324089
1016	N	0.507355	0.859209	0.344895
1017	N	0.86003	0.009786	0.363145
1018	C	0.001917	0.733392	0.637911
1019	C	0.003199	0.712483	0.346104
1020	C	0.000429	0.735389	0.385584
1021	N	0.496231	0.773787	0.384256
1022	C	0.494849	0.792901	0.678204
1023	N	0.497266	0.77143	0.640974
1024	C	0.003616	0.719562	0.589652
1025	C	0.504808	0.752239	0.553614
1026	H	0.979772	0.77004	0.555477
1027	H	0.506301	0.741073	0.519547
1028	H	0.52928	0.770378	0.558647
1029	C	0.966631	0.697455	0.578482
1030	H	0.942464	0.716446	0.577896
1031	H	0.959873	0.675919	0.602882
1032	H	0.968609	0.684016	0.545659
1033	C	0.540907	0.697151	0.580902
1034	H	0.56528	0.715692	0.583951
1035	H	0.541045	0.685138	0.547223
1036	H	0.54556	0.674268	0.604172
1037	O	0.000635	0.719675	0.427013
1038	H	0.493137	0.787706	0.412151
1039	C	0.008306	0.672718	0.352394
1040	H	0.019568	0.664027	0.381023
1041	C	0.485378	0.830666	0.670976
1042	H	0.96378	0.83468	0.650229
1043	C	0.775125	0.999494	0.648825
1044	C	0.791816	0.999334	0.359301
1045	C	0.765891	0.00236	0.395657
1046	N	0.72783	0.504745	0.389434
1047	C	0.711764	0.504121	0.347944
1048	N	0.736509	0.501865	0.64652
1049	C	0.796108	0.997548	0.60441
1050	C	0.768591	0.49413	0.563238
1051	H	0.751509	0.968656	0.565795
1052	H	0.783994	0.992848	0.531597
1053	H	0.749616	0.518265	0.561379
1054	C	0.822739	0.962488	0.601893
1055	H	0.807459	0.936905	0.610824
1056	H	0.846857	0.96509	0.624091
1057	H	0.834108	0.958826	0.568148
1058	C	0.818974	0.534657	0.597188
1059	H	0.80036	0.559105	0.598147
1060	H	0.833265	0.534455	0.564766
1061	H	0.84042	0.538584	0.622704
1062	O	0.778225	0.002321	0.438695
1063	H	0.711744	0.506351	0.415817
1064	C	0.829578	0.990547	0.370809
1065	H	0.832355	0.968707	0.391475
1066	C	0.672514	0.505105	0.33966
1067	H	0.663548	0.005831	0.64151
1068	C	0.503423	0.538797	0.989306
1069	C	0.502796	0.535183	0.941919
1070	C	0.503509	0.964165	0.946087
1071	C	0.503661	0.964935	0.993633
1072	C	0.504323	0.929117	0.682876
1073	C	0.503953	0.893995	0.992959
1074	C	0.504777	0.895464	0.945695
1075	C	0.504151	0.929688	0.92269
1076	C	0.501774	0.567323	0.914373
1077	C	0.501112	0.603316	0.932944
1078	C	0.501905	0.609223	0.979598
1079	C	0.503264	0.57645	0.674009
1080	C	0.966108	0.003704	0.710516
1081	C	0.966879	0.002866	0.758037
1082	C	0.538357	0.5036	0.759029
1083	C	0.540236	0.503927	0.711507
1084	C	0.571628	0.503808	0.784873
1085	C	0.607098	0.504253	0.764532
1086	C	0.611055	0.504444	0.717606
1087	C	0.577239	0.504205	0.691612
1088	C	0.929575	0.005038	0.689565
1089	C	0.895058	0.004728	0.714185
1090	C	0.898012	0.003959	0.761338
1091	C	0.933015	0.00276	0.782809
1092	H	0.874352	0.005192	0.780848
1093	H	0.933577	0.002594	0.817127
1094	H	0.570311	0.503505	0.819161
1095	H	0.630361	0.504295	0.784839
1096	H	0.579624	0.504093	0.990821
1097	H	0.928034	0.006403	0.988733
1098	H	0.504981	0.928551	0.717107
1099	H	0.506204	0.871219	0.927227
1100	H	0.504632	0.929193	0.888361
1101	H	0.503624	0.580064	0.707979
1102	H	0.501346	0.564826	0.880181
1103	H	0.500613	0.62539	0.911125
1104	C	0.503433	0.502984	0.684608
1105	C	0.502363	0.002568	0.784018
1106	H	0.501888	0.527032	0.806246
1107	H	0.502394	0.977184	0.804775
1108	C	0.503014	0.498585	0.918444
1109	H	0.527859	0.997964	0.896773
1110	H	0.977942	0.49737	0.897182
1111	N	0.647417	0.504489	0.704296
1112	N	0.501523	0.646119	0.657424
1113	N	0.507355	0.859209	0.678228
1114	N	0.86003	0.009786	0.696478
1115	C	0.001917	0.733392	0.971244
1116	C	0.003199	0.712483	0.679438
1117	C	0.000429	0.735389	0.718917
1118	N	0.496231	0.773787	0.71759
1119	C	0.494849	0.792901	0.011536
1120	N	0.497266	0.77143	0.974307
1121	C	0.003616	0.719562	0.922985
1122	C	0.504808	0.752239	0.886947
1123	H	0.979772	0.77004	0.88881
1124	H	0.506301	0.741073	0.85288
1125	H	0.52928	0.770378	0.891981
1126	C	0.966631	0.697455	0.911816
1127	H	0.942464	0.716446	0.911229
1128	H	0.959873	0.675919	0.936215
1129	H	0.968609	0.684016	0.878992
1130	C	0.540907	0.697151	0.914235
1131	H	0.56528	0.715692	0.917285
1132	H	0.541045	0.685138	0.880557
1133	H	0.54556	0.674268	0.937505
1134	O	0.000635	0.719675	0.760346
1135	H	0.493137	0.787706	0.745484
1136	C	0.008306	0.672718	0.685728
1137	H	0.019568	0.664027	0.714356
1138	C	0.485378	0.830666	0.004309
1139	H	0.96378	0.83468	0.983563
1140	C	0.775125	0.999494	0.982159
1141	C	0.791816	0.999334	0.692637
1142	C	0.765891	0.00236	0.72899
1143	N	0.72783	0.504745	0.722767
1144	C	0.711764	0.504121	0.681277
1145	N	0.736509	0.501865	0.979853
1146	C	0.796108	0.997548	0.937747
1147	C	0.768591	0.49413	0.896572
1148	H	0.751509	0.968656	0.899129
1149	H	0.783994	0.992848	0.864931
1150	H	0.749616	0.518265	0.894712
1151	C	0.822739	0.962488	0.935226
1152	H	0.807459	0.936905	0.944157
1153	H	0.846857	0.96509	0.957424
1154	H	0.834108	0.958826	0.901481
1155	C	0.818974	0.534657	0.930522
1156	H	0.80036	0.559105	0.93148
1157	H	0.833265	0.534455	0.8981
1158	H	0.84042	0.538584	0.956037
1159	O	0.778225	0.002321	0.772028
1160	H	0.711744	0.506351	0.74915
1161	C	0.829578	0.990547	0.704142
1162	H	0.832355	0.968707	0.724808
1163	C	0.672514	0.505105	0.672993
1164	H	0.663548	0.005831	0.974843
