data_C504H216N144O144_2018-02-15_10:32:43
#******************************************
#
# CIF file created by Zeo++
# Zeo++ is an open source package to
# analyze microporous materials
#
#*******************************************

_cell_length_a		43.9928   
_cell_length_b		43.9928   
_cell_length_c		30.0716   
_cell_angle_alpha		90   
_cell_angle_beta		90   
_cell_angle_gamma		120   

_symmetry_space_group_name_H-M		'P1'
_symmetry_Int_Tables_number		1
_symmetry_cell_setting		Monoclinic

loop_
_symmetry_equiv_pos_as_xyz
'+x,+y,+z'

loop_
_atom_site_label
_atom_site_type_symbol
_atom_site_fract_x
_atom_site_fract_y
_atom_site_fract_z
1	C	0.174888	0.368591	0.956801
2	C	0.139167	0.341876	0.956602
3	C	0.128416	0.305686	0.956701
4	C	0.155139	0.296688	0.956568
5	C	0.191328	0.322127	0.290082
6	C	0.200336	0.357853	0.956585
7	H	0.147894	0.270821	0.959388
8	H	0.226193	0.376462	0.959545
9	H	0.120547	0.34912	0.959442
10	C	0.18439	0.40434	0.962521
11	C	0.217576	0.312628	0.29581
12	C	0.092666	0.279428	0.962355
13	O	0.251328	0.338466	0.968547
14	O	0.158555	0.412248	0.968666
15	O	0.084754	0.245671	0.96838
16	C	0.321527	0.129029	0.040841
17	C	0.357254	0.155729	0.041008
18	C	0.368014	0.191921	0.040846
19	C	0.341304	0.200938	0.041021
20	C	0.305111	0.175512	0.374251
21	C	0.296093	0.139785	0.041056
22	H	0.34856	0.226806	0.03819
23	H	0.270222	0.121175	0.038247
24	H	0.375866	0.148479	0.038108
25	C	0.312007	0.093272	0.035167
26	C	0.27886	0.185017	0.368604
27	C	0.403761	0.218162	0.03511
28	O	0.245108	0.159192	0.029158
29	O	0.337834	0.085339	0.029097
30	O	0.411688	0.251918	0.029036
31	C	0.230505	0.265661	0.311402
32	C	0.227109	0.23392	0.295032
33	C	0.244631	0.218155	0.314552
34	C	0.265977	0.232005	0.019602
35	C	0.269428	0.263782	0.035925
36	C	0.251847	0.279509	0.016459
37	N	0.238715	0.19131	0.28836
38	O	0.209379	0.216578	0.257651
39	C	0.217681	0.190586	0.255655
40	N	0.257735	0.306334	0.042671
41	O	0.287132	0.28111	0.073327
42	C	0.278685	0.306993	0.075448
43	H	0.209491	0.172717	0.230379
44	H	0.287108	0.325038	0.100533
45	N	0.211681	0.279218	0.292268
46	H	0.192489	0.263559	0.27282
47	N	0.284796	0.218446	0.038743
48	H	0.304003	0.234109	0.058169
49	C	0.231358	0.464242	0.311436
50	C	0.263108	0.492573	0.295064
51	C	0.278844	0.025878	0.314533
52	C	0.265045	0.033372	0.019635
53	C	0.233264	0.005052	0.035963
54	C	0.217489	0.471759	0.016451
55	N	0.305652	0.046817	0.288295
56	O	0.280404	0.492198	0.257631
57	C	0.306308	0.02652	0.255525
58	N	0.190761	0.450795	0.04278
59	O	0.215989	0.005422	0.073419
60	C	0.190136	0.471082	0.075587
61	H	0.324276	0.036165	0.230353
62	H	0.17218	0.461439	0.100769
63	N	0.217806	0.431852	0.292331
64	H	0.233465	0.428312	0.272893
65	N	0.278594	0.065766	0.038725
66	H	0.262939	0.069313	0.058163
67	C	0.032757	0.266459	0.311242
68	C	0.00444	0.269937	0.294941
69	C	0.47114	0.252385	0.314429
70	C	0.463654	0.231084	0.019523
71	C	0.491975	0.227621	0.035833
72	C	0.025241	0.245061	0.016245
73	N	0.450211	0.258298	0.288233
74	O	0.004826	0.287657	0.257549
75	C	0.470499	0.279226	0.25544
76	N	0.046193	0.239245	0.042527
77	O	0.491598	0.209943	0.073259
78	C	0.025891	0.218243	0.07526
79	H	0.460886	0.287672	0.230371
80	H	0.035601	0.210179	0.100639
81	N	0.065153	0.285328	0.292163
82	H	0.068703	0.304555	0.272772
83	N	0.431269	0.212254	0.038644
84	H	0.427727	0.193055	0.058084
85	C	0.174888	0.368591	0.290136
86	C	0.139167	0.341876	0.289937
87	C	0.128416	0.305686	0.290034
88	C	0.155139	0.296688	0.289902
89	C	0.191328	0.322127	0.623416
90	C	0.200336	0.357853	0.28992
91	H	0.147894	0.270821	0.292722
92	H	0.226193	0.376462	0.29288
93	H	0.120547	0.34912	0.292775
94	C	0.18439	0.40434	0.295854
95	C	0.217576	0.312628	0.629143
96	C	0.092666	0.279428	0.295689
97	O	0.251328	0.338466	0.30188
98	O	0.158555	0.412248	0.302002
99	O	0.084754	0.245671	0.301713
100	C	0.321527	0.129029	0.374174
101	C	0.357254	0.155729	0.37434
102	C	0.368014	0.191921	0.374178
103	C	0.341304	0.200938	0.374354
104	C	0.305111	0.175512	0.707582
105	C	0.296093	0.139785	0.374387
106	H	0.34856	0.226806	0.371524
107	H	0.270222	0.121175	0.37158
108	H	0.375866	0.148479	0.371441
109	C	0.312007	0.093272	0.368501
110	C	0.27886	0.185017	0.701939
111	C	0.403761	0.218162	0.368445
112	O	0.245108	0.159192	0.362489
113	O	0.337834	0.085339	0.362429
114	O	0.411688	0.251918	0.362369
115	C	0.230505	0.265661	0.644736
116	C	0.227109	0.23392	0.628365
117	C	0.244631	0.218155	0.647885
118	C	0.265977	0.232005	0.352935
119	C	0.269428	0.263782	0.369259
120	C	0.251847	0.279509	0.349792
121	N	0.238715	0.19131	0.621694
122	O	0.209379	0.216578	0.590984
123	C	0.217681	0.190586	0.588988
124	N	0.257735	0.306334	0.376003
125	O	0.287132	0.28111	0.40666
126	C	0.278685	0.306993	0.408782
127	H	0.209491	0.172717	0.563712
128	H	0.287108	0.325038	0.433865
129	N	0.211681	0.279218	0.625601
130	H	0.192489	0.263559	0.606154
131	N	0.284796	0.218446	0.372076
132	H	0.304003	0.234109	0.391503
133	C	0.231358	0.464242	0.644769
134	C	0.263108	0.492573	0.628398
135	C	0.278844	0.025878	0.647865
136	C	0.265045	0.033372	0.352968
137	C	0.233264	0.005052	0.369296
138	C	0.217489	0.471759	0.349782
139	N	0.305652	0.046817	0.621627
140	O	0.280404	0.492198	0.590964
141	C	0.306308	0.02652	0.588859
142	N	0.190761	0.450795	0.376113
143	O	0.215989	0.005422	0.406753
144	C	0.190136	0.471082	0.408921
145	H	0.324276	0.036165	0.563686
146	H	0.17218	0.461439	0.434101
147	N	0.217806	0.431852	0.625664
148	H	0.233465	0.428312	0.606224
149	N	0.278594	0.065766	0.372059
150	H	0.262939	0.069313	0.391496
151	C	0.032757	0.266459	0.644576
152	C	0.00444	0.269937	0.628275
153	C	0.47114	0.252385	0.647762
154	C	0.463654	0.231084	0.352855
155	C	0.491975	0.227621	0.369166
156	C	0.025241	0.245061	0.349576
157	N	0.450211	0.258298	0.621564
158	O	0.004826	0.287657	0.590884
159	C	0.470499	0.279226	0.588772
160	N	0.046193	0.239245	0.37586
161	O	0.491598	0.209943	0.40659
162	C	0.025891	0.218243	0.408592
163	H	0.460886	0.287672	0.563705
164	H	0.035601	0.210179	0.433972
165	N	0.065153	0.285328	0.625495
166	H	0.068703	0.304555	0.606104
167	N	0.431269	0.212254	0.371976
168	H	0.427727	0.193055	0.391416
169	C	0.174888	0.368591	0.62347
170	C	0.139167	0.341876	0.62327
171	C	0.128416	0.305686	0.623367
172	C	0.155139	0.296688	0.623233
173	C	0.191328	0.322127	0.956748
174	C	0.200336	0.357853	0.623253
175	H	0.147894	0.270821	0.626057
176	H	0.226193	0.376462	0.626213
177	H	0.120547	0.34912	0.626107
178	C	0.18439	0.40434	0.629186
179	C	0.217576	0.312628	0.962474
180	C	0.092666	0.279428	0.629023
181	O	0.251328	0.338466	0.635212
182	O	0.158555	0.412248	0.635335
183	O	0.084754	0.245671	0.635045
184	C	0.321527	0.129029	0.707506
185	C	0.357254	0.155729	0.707675
186	C	0.368014	0.191921	0.707512
187	C	0.341304	0.200938	0.707689
188	C	0.305111	0.175512	0.040916
189	C	0.296093	0.139785	0.707722
190	H	0.34856	0.226806	0.704855
191	H	0.270222	0.121175	0.704912
192	H	0.375866	0.148479	0.704772
193	C	0.312007	0.093272	0.701833
194	C	0.27886	0.185017	0.035273
195	C	0.403761	0.218162	0.701776
196	O	0.245108	0.159192	0.695824
197	O	0.337834	0.085339	0.695764
198	O	0.411688	0.251918	0.695701
199	C	0.230505	0.265661	0.978067
200	C	0.227109	0.23392	0.961696
201	C	0.244631	0.218155	0.981216
202	C	0.265977	0.232005	0.686266
203	C	0.269428	0.263782	0.702591
204	C	0.251847	0.279509	0.683124
205	N	0.238715	0.19131	0.955025
206	O	0.209379	0.216578	0.924319
207	C	0.217681	0.190586	0.92232
208	N	0.257735	0.306334	0.709338
209	O	0.287132	0.28111	0.739992
210	C	0.278685	0.306993	0.742113
211	H	0.209491	0.172717	0.897044
212	H	0.287108	0.325038	0.7672
213	N	0.211681	0.279218	0.958933
214	H	0.192489	0.263559	0.939486
215	N	0.284796	0.218446	0.705407
216	H	0.304003	0.234109	0.724834
217	C	0.231358	0.464242	0.9781
218	C	0.263108	0.492573	0.961729
219	C	0.278844	0.025878	0.9812
220	C	0.265045	0.033372	0.6863
221	C	0.233264	0.005052	0.702627
222	C	0.217489	0.471759	0.683117
223	N	0.305652	0.046817	0.954962
224	O	0.280404	0.492198	0.924295
225	C	0.306308	0.02652	0.92219
226	N	0.190761	0.450795	0.709445
227	O	0.215989	0.005422	0.740085
228	C	0.190136	0.471082	0.742253
229	H	0.324276	0.036165	0.89702
230	H	0.17218	0.461439	0.767436
231	N	0.217806	0.431852	0.958996
232	H	0.233465	0.428312	0.939559
233	N	0.278594	0.065766	0.705391
234	H	0.262939	0.069313	0.724828
235	C	0.032757	0.266459	0.977908
236	C	0.00444	0.269937	0.961606
237	C	0.47114	0.252385	0.981093
238	C	0.463654	0.231084	0.686187
239	C	0.491975	0.227621	0.702498
240	C	0.025241	0.245061	0.682911
241	N	0.450211	0.258298	0.954899
242	O	0.004826	0.287657	0.924216
243	C	0.470499	0.279226	0.922104
244	N	0.046193	0.239245	0.709192
245	O	0.491598	0.209943	0.739925
246	C	0.025891	0.218243	0.741927
247	H	0.460886	0.287672	0.897037
248	H	0.035601	0.210179	0.767307
249	N	0.065153	0.285328	0.95883
250	H	0.068703	0.304555	0.939436
251	N	0.431269	0.212254	0.705311
252	H	0.427727	0.193055	0.724751
253	C	0.174886	0.868589	0.956801
254	C	0.139166	0.841875	0.956602
255	C	0.128417	0.805687	0.956701
256	C	0.155138	0.796687	0.956568
257	C	0.191327	0.822126	0.290082
258	C	0.200336	0.857852	0.956585
259	H	0.147895	0.770823	0.959388
260	H	0.226192	0.876461	0.959545
261	H	0.120546	0.849119	0.959442
262	C	0.184389	0.904338	0.962521
263	C	0.217575	0.812627	0.29581
264	C	0.092665	0.779427	0.962355
265	O	0.251329	0.838468	0.968547
266	O	0.158556	0.912249	0.968666
267	O	0.084754	0.74567	0.96838
268	C	0.321526	0.629029	0.040841
269	C	0.357254	0.65573	0.041008
270	C	0.368014	0.69192	0.040846
271	C	0.341305	0.700939	0.041021
272	C	0.305112	0.675513	0.374251
273	C	0.296093	0.639785	0.041056
274	H	0.348558	0.726806	0.03819
275	H	0.270222	0.621175	0.038247
276	H	0.375865	0.648478	0.038107
277	C	0.312007	0.593272	0.035167
278	C	0.27886	0.685017	0.368604
279	C	0.403762	0.718162	0.03511
280	O	0.245108	0.659192	0.029158
281	O	0.337834	0.58534	0.029097
282	O	0.411686	0.751917	0.029036
283	C	0.230506	0.765663	0.311402
284	C	0.22711	0.733921	0.295032
285	C	0.24463	0.718155	0.314552
286	C	0.265977	0.732005	0.019602
287	C	0.269428	0.763783	0.035925
288	C	0.251846	0.779508	0.016459
289	N	0.238715	0.691309	0.28836
290	O	0.209379	0.716577	0.257651
291	C	0.217681	0.690587	0.255655
292	N	0.257736	0.806336	0.042671
293	O	0.287131	0.781109	0.073327
294	C	0.278684	0.806992	0.075448
295	H	0.209491	0.672718	0.230379
296	H	0.287108	0.825037	0.100533
297	N	0.211681	0.779217	0.292268
298	H	0.192489	0.76356	0.27282
299	N	0.284796	0.718446	0.038743
300	H	0.304002	0.734108	0.058169
301	C	0.231356	0.96424	0.311436
302	C	0.263107	0.992572	0.295064
303	C	0.278845	0.525879	0.314533
304	C	0.265045	0.533372	0.019635
305	C	0.233264	0.505051	0.035963
306	C	0.217489	0.971758	0.016451
307	N	0.305651	0.546816	0.288295
308	O	0.280403	0.992197	0.257631
309	C	0.306308	0.526519	0.255525
310	N	0.190761	0.950796	0.04278
311	O	0.215989	0.505421	0.073419
312	C	0.190135	0.971081	0.075587
313	H	0.324275	0.536165	0.230353
314	H	0.172179	0.961437	0.100769
315	N	0.217805	0.931851	0.292331
316	H	0.233465	0.92831	0.272893
317	N	0.278593	0.565764	0.038725
318	H	0.262939	0.569313	0.058163
319	C	0.032756	0.766458	0.311242
320	C	0.004441	0.769938	0.294941
321	C	0.471142	0.752387	0.314429
322	C	0.463653	0.731084	0.019523
323	C	0.491976	0.727622	0.035833
324	C	0.02524	0.745061	0.016245
325	N	0.450211	0.758297	0.288233
326	O	0.004825	0.787655	0.25755
327	C	0.4705	0.779227	0.25544
328	N	0.046192	0.739244	0.042527
329	O	0.491598	0.709942	0.073259
330	C	0.02589	0.718244	0.07526
331	H	0.460885	0.787671	0.230371
332	H	0.0356	0.710178	0.100639
333	N	0.065151	0.785327	0.292163
334	H	0.068703	0.804556	0.272772
335	N	0.431269	0.712254	0.038644
336	H	0.427727	0.693054	0.058084
337	C	0.174886	0.868589	0.290136
338	C	0.139166	0.841875	0.289937
339	C	0.128417	0.805687	0.290034
340	C	0.155138	0.796687	0.289902
341	C	0.191327	0.822126	0.623416
342	C	0.200336	0.857852	0.28992
343	H	0.147895	0.770823	0.292722
344	H	0.226192	0.876461	0.29288
345	H	0.120546	0.849119	0.292775
346	C	0.184389	0.904338	0.295854
347	C	0.217575	0.812627	0.629143
348	C	0.092665	0.779427	0.295689
349	O	0.251329	0.838468	0.30188
350	O	0.158556	0.912249	0.302002
351	O	0.084754	0.74567	0.301713
352	C	0.321526	0.629029	0.374174
353	C	0.357254	0.65573	0.37434
354	C	0.368014	0.69192	0.374178
355	C	0.341305	0.700939	0.374354
356	C	0.305112	0.675513	0.707582
357	C	0.296093	0.639785	0.374387
358	H	0.348558	0.726806	0.371524
359	H	0.270222	0.621175	0.37158
360	H	0.375865	0.648478	0.371441
361	C	0.312007	0.593272	0.368501
362	C	0.27886	0.685017	0.701939
363	C	0.403762	0.718162	0.368445
364	O	0.245108	0.659192	0.362489
365	O	0.337834	0.58534	0.362429
366	O	0.411686	0.751917	0.362369
367	C	0.230506	0.765663	0.644736
368	C	0.22711	0.733921	0.628365
369	C	0.24463	0.718155	0.647885
370	C	0.265977	0.732005	0.352935
371	C	0.269428	0.763783	0.369259
372	C	0.251846	0.779508	0.349792
373	N	0.238715	0.691309	0.621694
374	O	0.209379	0.716577	0.590984
375	C	0.217681	0.690587	0.588988
376	N	0.257736	0.806336	0.376003
377	O	0.287131	0.781109	0.40666
378	C	0.278684	0.806992	0.408782
379	H	0.209491	0.672718	0.563712
380	H	0.287108	0.825037	0.433865
381	N	0.211681	0.779217	0.625601
382	H	0.192489	0.76356	0.606154
383	N	0.284796	0.718446	0.372076
384	H	0.304002	0.734108	0.391503
385	C	0.231356	0.96424	0.644769
386	C	0.263107	0.992572	0.628398
387	C	0.278845	0.525879	0.647865
388	C	0.265045	0.533372	0.352968
389	C	0.233264	0.505051	0.369296
390	C	0.217489	0.971758	0.349782
391	N	0.305651	0.546816	0.621627
392	O	0.280403	0.992197	0.590964
393	C	0.306308	0.526519	0.588859
394	N	0.190761	0.950796	0.376113
395	O	0.215989	0.505421	0.406753
396	C	0.190135	0.971081	0.408921
397	H	0.324275	0.536165	0.563686
398	H	0.172179	0.961437	0.434101
399	N	0.217805	0.931851	0.625664
400	H	0.233465	0.92831	0.606224
401	N	0.278593	0.565764	0.372056
402	H	0.262939	0.569313	0.391496
403	C	0.032756	0.766458	0.644576
404	C	0.004441	0.769938	0.628275
405	C	0.471142	0.752387	0.647762
406	C	0.463653	0.731084	0.352855
407	C	0.491976	0.727622	0.369166
408	C	0.02524	0.745061	0.349576
409	N	0.450211	0.758297	0.621564
410	O	0.004825	0.787655	0.590884
411	C	0.4705	0.779227	0.588772
412	N	0.046192	0.739244	0.37586
413	O	0.491598	0.709942	0.40659
414	C	0.02589	0.718244	0.408592
415	H	0.460885	0.787671	0.563705
416	H	0.0356	0.710178	0.433972
417	N	0.065151	0.785327	0.625495
418	H	0.068703	0.804556	0.606104
419	N	0.431269	0.712254	0.371976
420	H	0.427727	0.693054	0.391416
421	C	0.174886	0.868589	0.62347
422	C	0.139166	0.841875	0.62327
423	C	0.128417	0.805687	0.623367
424	C	0.155138	0.796687	0.623233
425	C	0.191327	0.822126	0.956748
426	C	0.200336	0.857852	0.623253
427	H	0.147895	0.770823	0.626057
428	H	0.226192	0.876461	0.626213
429	H	0.120546	0.849119	0.626107
430	C	0.184389	0.904338	0.629186
431	C	0.217575	0.812627	0.962474
432	C	0.092665	0.779427	0.629023
433	O	0.251329	0.838468	0.635212
434	O	0.158556	0.912249	0.635335
435	O	0.084754	0.74567	0.635045
436	C	0.321526	0.629029	0.707506
437	C	0.357254	0.65573	0.707675
438	C	0.368014	0.69192	0.707512
439	C	0.341305	0.700939	0.707689
440	C	0.305112	0.675513	0.040916
441	C	0.296093	0.639785	0.707722
442	H	0.348558	0.726806	0.704855
443	H	0.270222	0.621175	0.704912
444	H	0.375865	0.648478	0.704772
445	C	0.312007	0.593272	0.701833
446	C	0.27886	0.685017	0.035273
447	C	0.403762	0.718162	0.701776
448	O	0.245108	0.659192	0.695824
449	O	0.337834	0.58534	0.695764
450	O	0.411686	0.751917	0.695701
451	C	0.230506	0.765663	0.978067
452	C	0.22711	0.733921	0.961696
453	C	0.24463	0.718155	0.981216
454	C	0.265977	0.732005	0.686266
455	C	0.269428	0.763783	0.702591
456	C	0.251846	0.779508	0.683124
457	N	0.238715	0.691309	0.955025
458	O	0.209379	0.716577	0.924319
459	C	0.217681	0.690587	0.92232
460	N	0.257736	0.806336	0.709338
461	O	0.287131	0.781109	0.739992
462	C	0.278684	0.806992	0.742113
463	H	0.209491	0.672718	0.897044
464	H	0.287108	0.825037	0.7672
465	N	0.211681	0.779217	0.958933
466	H	0.192489	0.76356	0.939486
467	N	0.284796	0.718446	0.705407
468	H	0.304002	0.734108	0.724834
469	C	0.231356	0.96424	0.9781
470	C	0.263107	0.992572	0.961729
471	C	0.278845	0.525879	0.9812
472	C	0.265045	0.533372	0.6863
473	C	0.233264	0.505051	0.702627
474	C	0.217489	0.971758	0.683117
475	N	0.305651	0.546816	0.954962
476	O	0.280403	0.992197	0.924295
477	C	0.306308	0.526519	0.92219
478	N	0.190761	0.950796	0.709445
479	O	0.215989	0.505421	0.740085
480	C	0.190135	0.971081	0.742253
481	H	0.324275	0.536165	0.89702
482	H	0.172179	0.961437	0.767436
483	N	0.217805	0.931851	0.958996
484	H	0.233465	0.92831	0.939559
485	N	0.278593	0.565764	0.705391
486	H	0.262939	0.569313	0.724828
487	C	0.032756	0.766458	0.977908
488	C	0.004441	0.769938	0.961606
489	C	0.471142	0.752387	0.981093
490	C	0.463653	0.731084	0.686187
491	C	0.491976	0.727622	0.702498
492	C	0.02524	0.745061	0.682911
493	N	0.450211	0.758297	0.954899
494	O	0.004825	0.787655	0.924216
495	C	0.4705	0.779227	0.922104
496	N	0.046192	0.739244	0.709192
497	O	0.491598	0.709942	0.739925
498	C	0.02589	0.718244	0.741927
499	H	0.460885	0.787671	0.897037
500	H	0.0356	0.710178	0.767307
501	N	0.065151	0.785327	0.95883
502	H	0.068703	0.804556	0.939436
503	N	0.431269	0.712254	0.705311
504	H	0.427727	0.693054	0.724751
505	C	0.674887	0.368591	0.956801
506	C	0.639167	0.341876	0.956602
507	C	0.628416	0.305686	0.956701
508	C	0.655138	0.296688	0.956568
509	C	0.691328	0.322127	0.290082
510	C	0.700337	0.357853	0.956585
511	H	0.647895	0.270821	0.959388
512	H	0.726194	0.376462	0.959545
513	H	0.620547	0.34912	0.959442
514	C	0.68439	0.40434	0.962521
515	C	0.717577	0.312628	0.29581
516	C	0.592665	0.279428	0.962355
517	O	0.751328	0.338466	0.968547
518	O	0.658555	0.412248	0.968666
519	O	0.584754	0.245671	0.96838
520	C	0.821527	0.129029	0.040841
521	C	0.857254	0.155729	0.041008
522	C	0.868014	0.191921	0.040846
523	C	0.841306	0.200938	0.041021
524	C	0.805112	0.175512	0.374251
525	C	0.796093	0.139785	0.041056
526	H	0.84856	0.226806	0.03819
527	H	0.770222	0.121175	0.038247
528	H	0.875866	0.148479	0.038108
529	C	0.812009	0.093272	0.035167
530	C	0.778859	0.185017	0.368604
531	C	0.903761	0.218162	0.03511
532	O	0.745107	0.159192	0.029158
533	O	0.837834	0.085339	0.029097
534	O	0.911688	0.251918	0.029036
535	C	0.730506	0.265661	0.311402
536	C	0.72711	0.23392	0.295032
537	C	0.744632	0.218155	0.314552
538	C	0.765977	0.232005	0.019602
539	C	0.769427	0.263782	0.035925
540	C	0.751846	0.279509	0.016459
541	N	0.738715	0.19131	0.28836
542	O	0.709381	0.216578	0.257651
543	C	0.717681	0.190586	0.255655
544	N	0.757734	0.306334	0.042671
545	O	0.787131	0.28111	0.073327
546	C	0.778685	0.306993	0.075448
547	H	0.709492	0.172717	0.230379
548	H	0.787108	0.325038	0.100533
549	N	0.711682	0.279218	0.292268
550	H	0.692489	0.263559	0.27282
551	N	0.784797	0.218446	0.038743
552	H	0.804003	0.234109	0.058169
553	C	0.731357	0.464242	0.311436
554	C	0.763108	0.492573	0.295064
555	C	0.778846	0.025878	0.314533
556	C	0.765045	0.033372	0.019635
557	C	0.733264	0.005052	0.035963
558	C	0.71749	0.471759	0.016451
559	N	0.805652	0.046817	0.288295
560	O	0.780405	0.492198	0.257631
561	C	0.80631	0.02652	0.255525
562	N	0.690762	0.450795	0.04278
563	O	0.715989	0.005422	0.073419
564	C	0.690136	0.471082	0.075587
565	H	0.824276	0.036165	0.230353
566	H	0.67218	0.461439	0.100769
567	N	0.717806	0.431852	0.292331
568	H	0.733466	0.428312	0.272893
569	N	0.778594	0.065766	0.038725
570	H	0.762939	0.069313	0.058163
571	C	0.532756	0.266459	0.311242
572	C	0.50444	0.269937	0.294941
573	C	0.971142	0.252385	0.314429
574	C	0.963654	0.231084	0.019523
575	C	0.991975	0.227621	0.035833
576	C	0.52524	0.245061	0.016245
577	N	0.950211	0.258298	0.288233
578	O	0.504826	0.287657	0.257549
579	C	0.970499	0.279226	0.25544
580	N	0.546193	0.239245	0.042527
581	O	0.991598	0.209943	0.073259
582	C	0.52589	0.218243	0.07526
583	H	0.960886	0.287672	0.230371
584	H	0.535601	0.210179	0.100639
585	N	0.565154	0.285328	0.292163
586	H	0.568702	0.304555	0.272772
587	N	0.931269	0.212254	0.038644
588	H	0.927727	0.193055	0.058084
589	C	0.674887	0.368591	0.290136
590	C	0.639167	0.341876	0.289937
591	C	0.628416	0.305686	0.290034
592	C	0.655138	0.296688	0.289902
593	C	0.691328	0.322127	0.623416
594	C	0.700337	0.357853	0.28992
595	H	0.647895	0.270821	0.292722
596	H	0.726194	0.376462	0.29288
597	H	0.620547	0.34912	0.292775
598	C	0.68439	0.40434	0.295854
599	C	0.717577	0.312628	0.629143
600	C	0.592665	0.279428	0.295689
601	O	0.751328	0.338466	0.30188
602	O	0.658555	0.412248	0.302002
603	O	0.584754	0.245671	0.301713
604	C	0.821527	0.129029	0.374174
605	C	0.857254	0.155729	0.37434
606	C	0.868014	0.191921	0.374178
607	C	0.841306	0.200938	0.374354
608	C	0.805112	0.175512	0.707582
609	C	0.796093	0.139785	0.374387
610	H	0.84856	0.226806	0.371524
611	H	0.770222	0.121175	0.37158
612	H	0.875866	0.148479	0.371441
613	C	0.812009	0.093272	0.368501
614	C	0.778859	0.185017	0.701939
615	C	0.903761	0.218162	0.368445
616	O	0.745107	0.159192	0.362489
617	O	0.837834	0.085339	0.362429
618	O	0.911688	0.251918	0.362369
619	C	0.730506	0.265661	0.644736
620	C	0.72711	0.23392	0.628365
621	C	0.744632	0.218155	0.647885
622	C	0.765977	0.232005	0.352935
623	C	0.769427	0.263782	0.369259
624	C	0.751846	0.279509	0.349792
625	N	0.738715	0.19131	0.621694
626	O	0.709381	0.216578	0.590984
627	C	0.717681	0.190586	0.588988
628	N	0.757734	0.306334	0.376003
629	O	0.787131	0.28111	0.40666
630	C	0.778685	0.306993	0.408782
631	H	0.709492	0.172717	0.563712
632	H	0.787108	0.325038	0.433865
633	N	0.711682	0.279218	0.625601
634	H	0.692489	0.263559	0.606154
635	N	0.784797	0.218446	0.372076
636	H	0.804003	0.234109	0.391503
637	C	0.731357	0.464242	0.644769
638	C	0.763108	0.492573	0.628398
639	C	0.778846	0.025878	0.647865
640	C	0.765045	0.033372	0.352968
641	C	0.733264	0.005052	0.369296
642	C	0.71749	0.471759	0.349782
643	N	0.805652	0.046817	0.621627
644	O	0.780405	0.492198	0.590964
645	C	0.80631	0.02652	0.588859
646	N	0.690762	0.450795	0.376113
647	O	0.715989	0.005422	0.406753
648	C	0.690136	0.471082	0.408921
649	H	0.824276	0.036165	0.563686
650	H	0.67218	0.461439	0.434101
651	N	0.717806	0.431852	0.625664
652	H	0.733466	0.428312	0.606224
653	N	0.778594	0.065766	0.372059
654	H	0.762939	0.069313	0.391496
655	C	0.532756	0.266459	0.644576
656	C	0.50444	0.269937	0.628275
657	C	0.971142	0.252385	0.647762
658	C	0.963654	0.231084	0.352855
659	C	0.991975	0.227621	0.369166
660	C	0.52524	0.245061	0.349576
661	N	0.950211	0.258298	0.621564
662	O	0.504826	0.287657	0.590884
663	C	0.970499	0.279226	0.588772
664	N	0.546193	0.239245	0.37586
665	O	0.991598	0.209943	0.40659
666	C	0.52589	0.218243	0.408592
667	H	0.960886	0.287672	0.563705
668	H	0.535601	0.210179	0.433972
669	N	0.565154	0.285328	0.625495
670	H	0.568702	0.304555	0.606104
671	N	0.931269	0.212254	0.371976
672	H	0.927727	0.193055	0.391416
673	C	0.674887	0.368591	0.62347
674	C	0.639167	0.341876	0.62327
675	C	0.628416	0.305686	0.623367
676	C	0.655138	0.296688	0.623233
677	C	0.691328	0.322127	0.956748
678	C	0.700337	0.357853	0.623253
679	H	0.647895	0.270821	0.626057
680	H	0.726194	0.376462	0.626213
681	H	0.620547	0.34912	0.626107
682	C	0.68439	0.40434	0.629186
683	C	0.717577	0.312628	0.962474
684	C	0.592665	0.279428	0.629023
685	O	0.751328	0.338466	0.635212
686	O	0.658555	0.412248	0.635335
687	O	0.584754	0.245671	0.635045
688	C	0.821527	0.129029	0.707506
689	C	0.857254	0.155729	0.707675
690	C	0.868014	0.191921	0.707512
691	C	0.841306	0.200938	0.707689
692	C	0.805112	0.175512	0.040916
693	C	0.796093	0.139785	0.707722
694	H	0.84856	0.226806	0.704855
695	H	0.770222	0.121175	0.704912
696	H	0.875866	0.148479	0.704772
697	C	0.812009	0.093272	0.701833
698	C	0.778859	0.185017	0.035273
699	C	0.903761	0.218162	0.701776
700	O	0.745107	0.159192	0.695824
701	O	0.837834	0.085339	0.695764
702	O	0.911688	0.251918	0.695701
703	C	0.730506	0.265661	0.978067
704	C	0.72711	0.23392	0.961696
705	C	0.744632	0.218155	0.981216
706	C	0.765977	0.232005	0.686266
707	C	0.769427	0.263782	0.702591
708	C	0.751846	0.279509	0.683124
709	N	0.738715	0.19131	0.955025
710	O	0.709381	0.216578	0.924319
711	C	0.717681	0.190586	0.92232
712	N	0.757734	0.306334	0.709338
713	O	0.787131	0.28111	0.739992
714	C	0.778685	0.306993	0.742113
715	H	0.709492	0.172717	0.897044
716	H	0.787108	0.325038	0.7672
717	N	0.711682	0.279218	0.958933
718	H	0.692489	0.263559	0.939486
719	N	0.784797	0.218446	0.705407
720	H	0.804003	0.234109	0.724834
721	C	0.731357	0.464242	0.9781
722	C	0.763108	0.492573	0.961729
723	C	0.778846	0.025878	0.9812
724	C	0.765045	0.033372	0.6863
725	C	0.733264	0.005052	0.702627
726	C	0.71749	0.471759	0.683117
727	N	0.805652	0.046817	0.954962
728	O	0.780405	0.492198	0.924295
729	C	0.80631	0.02652	0.92219
730	N	0.690762	0.450795	0.709445
731	O	0.715989	0.005422	0.740085
732	C	0.690136	0.471082	0.742253
733	H	0.824276	0.036165	0.89702
734	H	0.67218	0.461439	0.767436
735	N	0.717806	0.431852	0.958996
736	H	0.733466	0.428312	0.939559
737	N	0.778594	0.065766	0.705391
738	H	0.762939	0.069313	0.724828
739	C	0.532756	0.266459	0.977908
740	C	0.50444	0.269937	0.961606
741	C	0.971142	0.252385	0.981093
742	C	0.963654	0.231084	0.686187
743	C	0.991975	0.227621	0.702498
744	C	0.52524	0.245061	0.682911
745	N	0.950211	0.258298	0.954899
746	O	0.504826	0.287657	0.924216
747	C	0.970499	0.279226	0.922104
748	N	0.546193	0.239245	0.709192
749	O	0.991598	0.209943	0.739925
750	C	0.52589	0.218243	0.741927
751	H	0.960886	0.287672	0.897037
752	H	0.535601	0.210179	0.767307
753	N	0.565154	0.285328	0.95883
754	H	0.568702	0.304555	0.939436
755	N	0.931269	0.212254	0.705311
756	H	0.927727	0.193055	0.724751
757	C	0.674886	0.868589	0.956801
758	C	0.639167	0.841875	0.956602
759	C	0.628417	0.805687	0.956701
760	C	0.655138	0.796687	0.956568
761	C	0.691327	0.822126	0.290082
762	C	0.700336	0.857852	0.956585
763	H	0.647895	0.770823	0.959388
764	H	0.726194	0.876461	0.959545
765	H	0.620546	0.849119	0.959442
766	C	0.684389	0.904338	0.962521
767	C	0.717576	0.812627	0.29581
768	C	0.592665	0.779427	0.962355
769	O	0.751329	0.838468	0.968547
770	O	0.658555	0.912249	0.968666
771	O	0.584753	0.74567	0.96838
772	C	0.821527	0.629029	0.040841
773	C	0.857254	0.65573	0.041008
774	C	0.868014	0.69192	0.040846
775	C	0.841304	0.700939	0.041021
776	C	0.805112	0.675513	0.374251
777	C	0.796093	0.639785	0.041056
778	H	0.84856	0.726806	0.03819
779	H	0.770222	0.621175	0.038247
780	H	0.875866	0.648478	0.038107
781	C	0.812007	0.593272	0.035167
782	C	0.77886	0.685017	0.368604
783	C	0.903761	0.718162	0.03511
784	O	0.745107	0.659192	0.029158
785	O	0.837834	0.58534	0.029097
786	O	0.911687	0.751917	0.029036
787	C	0.730506	0.765663	0.311402
788	C	0.727111	0.733921	0.295032
789	C	0.744631	0.718155	0.314552
790	C	0.765977	0.732005	0.019602
791	C	0.769428	0.763783	0.035925
792	C	0.751845	0.779508	0.016459
793	N	0.738714	0.691309	0.28836
794	O	0.70938	0.716577	0.257651
795	C	0.717682	0.690587	0.255655
796	N	0.757735	0.806336	0.042671
797	O	0.787131	0.781109	0.073327
798	C	0.778685	0.806992	0.075448
799	H	0.70949	0.672718	0.230379
800	H	0.787107	0.825037	0.100533
801	N	0.711682	0.779217	0.292268
802	H	0.69249	0.76356	0.27282
803	N	0.784797	0.718446	0.038743
804	H	0.804003	0.734108	0.058169
805	C	0.731356	0.96424	0.311436
806	C	0.763107	0.992572	0.295064
807	C	0.778846	0.525879	0.314533
808	C	0.765045	0.533372	0.019635
809	C	0.733263	0.505051	0.035963
810	C	0.717489	0.971758	0.016451
811	N	0.805652	0.546816	0.288295
812	O	0.780404	0.992197	0.257631
813	C	0.806308	0.526519	0.255525
814	N	0.690762	0.950796	0.04278
815	O	0.715989	0.505421	0.073419
816	C	0.690136	0.971081	0.075587
817	H	0.824276	0.536165	0.230353
818	H	0.672179	0.961437	0.100769
819	N	0.717805	0.931851	0.292331
820	H	0.733465	0.92831	0.272893
821	N	0.778593	0.565764	0.038725
822	H	0.762939	0.569313	0.058163
823	C	0.532756	0.766458	0.311242
824	C	0.504441	0.769938	0.294941
825	C	0.971141	0.752387	0.314429
826	C	0.963654	0.731084	0.019523
827	C	0.991975	0.727622	0.035833
828	C	0.52524	0.745061	0.016245
829	N	0.95021	0.758297	0.288233
830	O	0.504825	0.787655	0.25755
831	C	0.9705	0.779227	0.25544
832	N	0.546192	0.739244	0.042527
833	O	0.991598	0.709942	0.073259
834	C	0.525891	0.718244	0.07526
835	H	0.960885	0.787671	0.230371
836	H	0.5356	0.710178	0.100639
837	N	0.565152	0.785327	0.292163
838	H	0.568703	0.804556	0.272772
839	N	0.931269	0.712254	0.038644
840	H	0.927727	0.693054	0.058084
841	C	0.674886	0.868589	0.290136
842	C	0.639167	0.841875	0.289937
843	C	0.628417	0.805687	0.290034
844	C	0.655138	0.796687	0.289902
845	C	0.691327	0.822126	0.623416
846	C	0.700336	0.857852	0.28992
847	H	0.647895	0.770823	0.292722
848	H	0.726194	0.876461	0.29288
849	H	0.620546	0.849119	0.292775
850	C	0.684389	0.904338	0.295854
851	C	0.717576	0.812627	0.629143
852	C	0.592665	0.779427	0.295689
853	O	0.751329	0.838468	0.30188
854	O	0.658555	0.912249	0.302002
855	O	0.584753	0.74567	0.301713
856	C	0.821527	0.629029	0.374174
857	C	0.857254	0.65573	0.37434
858	C	0.868014	0.69192	0.374178
859	C	0.841304	0.700939	0.374354
860	C	0.805112	0.675513	0.707582
861	C	0.796093	0.639785	0.374387
862	H	0.84856	0.726806	0.371524
863	H	0.770222	0.621175	0.37158
864	H	0.875866	0.648478	0.371441
865	C	0.812007	0.593272	0.368501
866	C	0.77886	0.685017	0.701939
867	C	0.903761	0.718162	0.368445
868	O	0.745107	0.659192	0.362489
869	O	0.837834	0.58534	0.362429
870	O	0.911687	0.751917	0.362369
871	C	0.730506	0.765663	0.644736
872	C	0.727111	0.733921	0.628365
873	C	0.744631	0.718155	0.647885
874	C	0.765977	0.732005	0.352935
875	C	0.769428	0.763783	0.369259
876	C	0.751845	0.779508	0.349792
877	N	0.738714	0.691309	0.621694
878	O	0.70938	0.716577	0.590984
879	C	0.717682	0.690587	0.588988
880	N	0.757735	0.806336	0.376003
881	O	0.787131	0.781109	0.40666
882	C	0.778685	0.806992	0.408782
883	H	0.70949	0.672718	0.563712
884	H	0.787107	0.825037	0.433865
885	N	0.711682	0.779217	0.625601
886	H	0.69249	0.76356	0.606154
887	N	0.784797	0.718446	0.372076
888	H	0.804003	0.734108	0.391503
889	C	0.731356	0.96424	0.644769
890	C	0.763107	0.992572	0.628398
891	C	0.778846	0.525879	0.647865
892	C	0.765045	0.533372	0.352968
893	C	0.733263	0.505051	0.369296
894	C	0.717489	0.971758	0.349782
895	N	0.805652	0.546816	0.621627
896	O	0.780404	0.992197	0.590964
897	C	0.806308	0.526519	0.588859
898	N	0.690762	0.950796	0.376113
899	O	0.715989	0.505421	0.406753
900	C	0.690136	0.971081	0.408921
901	H	0.824276	0.536165	0.563686
902	H	0.672179	0.961437	0.434101
903	N	0.717805	0.931851	0.625664
904	H	0.733465	0.92831	0.606224
905	N	0.778593	0.565764	0.372056
906	H	0.762939	0.569313	0.391496
907	C	0.532756	0.766458	0.644576
908	C	0.504441	0.769938	0.628275
909	C	0.971141	0.752387	0.647762
910	C	0.963654	0.731084	0.352855
911	C	0.991975	0.727622	0.369166
912	C	0.52524	0.745061	0.349576
913	N	0.95021	0.758297	0.621564
914	O	0.504825	0.787655	0.590884
915	C	0.9705	0.779227	0.588772
916	N	0.546192	0.739244	0.37586
917	O	0.991598	0.709942	0.40659
918	C	0.525891	0.718244	0.408592
919	H	0.960885	0.787671	0.563705
920	H	0.5356	0.710178	0.433972
921	N	0.565152	0.785327	0.625495
922	H	0.568703	0.804556	0.606104
923	N	0.931269	0.712254	0.371976
924	H	0.927727	0.693054	0.391416
925	C	0.674886	0.868589	0.62347
926	C	0.639167	0.841875	0.62327
927	C	0.628417	0.805687	0.623367
928	C	0.655138	0.796687	0.623233
929	C	0.691327	0.822126	0.956748
930	C	0.700336	0.857852	0.623253
931	H	0.647895	0.770823	0.626057
932	H	0.726194	0.876461	0.626213
933	H	0.620546	0.849119	0.626107
934	C	0.684389	0.904338	0.629186
935	C	0.717576	0.812627	0.962474
936	C	0.592665	0.779427	0.629023
937	O	0.751329	0.838468	0.635212
938	O	0.658555	0.912249	0.635335
939	O	0.584753	0.74567	0.635045
940	C	0.821527	0.629029	0.707506
941	C	0.857254	0.65573	0.707675
942	C	0.868014	0.69192	0.707512
943	C	0.841304	0.700939	0.707689
944	C	0.805112	0.675513	0.040916
945	C	0.796093	0.639785	0.707722
946	H	0.84856	0.726806	0.704855
947	H	0.770222	0.621175	0.704912
948	H	0.875866	0.648478	0.704772
949	C	0.812007	0.593272	0.701833
950	C	0.77886	0.685017	0.035273
951	C	0.903761	0.718162	0.701776
952	O	0.745107	0.659192	0.695824
953	O	0.837834	0.58534	0.695764
954	O	0.911687	0.751917	0.695701
955	C	0.730506	0.765663	0.978067
956	C	0.727111	0.733921	0.961696
957	C	0.744631	0.718155	0.981216
958	C	0.765977	0.732005	0.686266
959	C	0.769428	0.763783	0.702591
960	C	0.751845	0.779508	0.683124
961	N	0.738714	0.691309	0.955025
962	O	0.70938	0.716577	0.924319
963	C	0.717682	0.690587	0.92232
964	N	0.757735	0.806336	0.709338
965	O	0.787131	0.781109	0.739992
966	C	0.778685	0.806992	0.742113
967	H	0.70949	0.672718	0.897044
968	H	0.787107	0.825037	0.7672
969	N	0.711682	0.779217	0.958933
970	H	0.69249	0.76356	0.939486
971	N	0.784797	0.718446	0.705407
972	H	0.804003	0.734108	0.724834
973	C	0.731356	0.96424	0.9781
974	C	0.763107	0.992572	0.961729
975	C	0.778846	0.525879	0.9812
976	C	0.765045	0.533372	0.6863
977	C	0.733263	0.505051	0.702627
978	C	0.717489	0.971758	0.683117
979	N	0.805652	0.546816	0.954962
980	O	0.780404	0.992197	0.924295
981	C	0.806308	0.526519	0.92219
982	N	0.690762	0.950796	0.709445
983	O	0.715989	0.505421	0.740085
984	C	0.690136	0.971081	0.742253
985	H	0.824276	0.536165	0.89702
986	H	0.672179	0.961437	0.767436
987	N	0.717805	0.931851	0.958996
988	H	0.733465	0.92831	0.939559
989	N	0.778593	0.565764	0.705391
990	H	0.762939	0.569313	0.724828
991	C	0.532756	0.766458	0.977908
992	C	0.504441	0.769938	0.961606
993	C	0.971141	0.752387	0.981093
994	C	0.963654	0.731084	0.686187
995	C	0.991975	0.727622	0.702498
996	C	0.52524	0.745061	0.682911
997	N	0.95021	0.758297	0.954899
998	O	0.504825	0.787655	0.924216
999	C	0.9705	0.779227	0.922104
1000	N	0.546192	0.739244	0.709192
1001	O	0.991598	0.709942	0.739925
1002	C	0.525891	0.718244	0.741927
1003	H	0.960885	0.787671	0.897037
1004	H	0.5356	0.710178	0.767307
1005	N	0.565152	0.785327	0.95883
1006	H	0.568703	0.804556	0.939436
1007	N	0.931269	0.712254	0.705311
1008	H	0.927727	0.693054	0.724751
