data_C864H432N216_2018-02-15_10:36:07
#******************************************
#
# CIF file created by Zeo++
# Zeo++ is an open source package to
# analyze microporous materials
#
#*******************************************

_cell_length_a		46.5426   
_cell_length_b		46.5425   
_cell_length_c		29.6658   
_cell_angle_alpha		89.999   
_cell_angle_beta		90.001   
_cell_angle_gamma		120   

_symmetry_space_group_name_H-M		'P1'
_symmetry_Int_Tables_number		1
_symmetry_cell_setting		Triclinic

loop_
_symmetry_equiv_pos_as_xyz
'+x,+y,+z'

loop_
_atom_site_label
_atom_site_type_symbol
_atom_site_fract_x
_atom_site_fract_y
_atom_site_fract_z
1	C	0.109218	0.234989	0.04229
2	C	0.101043	0.249805	0.005989
3	N	0.091348	0.224974	0.081123
4	H	0.098031	0.21603	0.106073
5	H	0.071833	0.227043	0.085733
6	C	0.107493	0.374443	0.039852
7	C	0.138535	0.404656	0.042335
8	H	0.130762	0.415932	0.106069
9	H	0.092464	0.366303	0.067648
10	C	0.026705	0.263907	0.015616
11	C	0.0445	0.299479	0.013987
12	C	0.07955	0.317208	0.0079
13	C	0.079755	0.263567	0.009289
14	C	0.044567	0.246181	0.014175
15	C	0.026222	0.316228	0.013812
16	C	0.026284	0.21115	0.013696
17	H	0.037963	0.341506	0.011386
18	H	0.038071	0.197653	0.011219
19	C	0.109218	0.734989	0.04229
20	C	0.101044	0.749805	0.005989
21	N	0.091348	0.724975	0.081123
22	H	0.098031	0.716031	0.106073
23	H	0.071836	0.727044	0.085733
24	C	0.107494	0.874443	0.039852
25	C	0.138535	0.904657	0.042335
26	H	0.130762	0.915932	0.106069
27	H	0.092465	0.866303	0.067648
28	C	0.026705	0.763907	0.015616
29	C	0.0445	0.799479	0.013987
30	C	0.079551	0.817208	0.0079
31	C	0.079755	0.763567	0.009289
32	C	0.044567	0.746183	0.014175
33	C	0.026223	0.816228	0.013812
34	C	0.026283	0.711149	0.013696
35	H	0.037963	0.841509	0.011386
36	H	0.03807	0.697653	0.011219
37	C	0.139488	0.234268	0.039773
38	C	0.13949	0.734269	0.039773
39	C	0.196626	0.263426	0.007903
40	C	0.197559	0.211054	0.013839
41	H	0.201443	0.1684	0.011259
42	H	0.172283	0.197527	0.011333
43	C	0.19659	0.434098	0.009297
44	C	0.1977	0.487595	0.013738
45	H	0.201554	0.034116	0.011323
46	H	0.17242	0.475833	0.011198
47	H	0.147574	0.227289	0.067545
48	C	0.161533	0.412851	0.006037
49	N	0.146409	0.422549	0.081151
50	H	0.167982	0.442081	0.085727
51	C	0.196626	0.763426	0.007903
52	C	0.19756	0.711055	0.013839
53	H	0.201444	0.6684	0.011259
54	H	0.172283	0.697526	0.011333
55	C	0.196591	0.934101	0.009297
56	C	0.197699	0.987595	0.013738
57	H	0.201554	0.534116	0.011323
58	H	0.172421	0.975833	0.011198
59	H	0.147575	0.72729	0.067545
60	C	0.161533	0.912851	0.006037
61	N	0.146409	0.922549	0.081151
62	H	0.167982	0.942082	0.085727
63	C	0.026706	0.263907	0.34895
64	C	0.0445	0.299479	0.347322
65	C	0.07955	0.317208	0.341234
66	C	0.095793	0.298484	0.338801
67	C	0.079755	0.263567	0.342623
68	C	0.044567	0.246181	0.347508
69	C	0.026221	0.316225	0.347147
70	C	0.026285	0.21115	0.347029
71	H	0.121263	0.311291	0.33722
72	H	0.037963	0.341506	0.34472
73	H	0.038072	0.197653	0.344551
74	N	0.123198	0.262054	0.304784
75	C	0.100519	0.35216	0.003579
76	N	0.123772	0.362637	0.303863
77	C	0.026706	0.263907	0.682283
78	C	0.0445	0.299479	0.680655
79	C	0.07955	0.317208	0.674567
80	C	0.095793	0.298484	0.672134
81	C	0.079755	0.263567	0.675956
82	C	0.044567	0.246181	0.680844
83	C	0.026222	0.316225	0.68048
84	C	0.026285	0.21115	0.680362
85	H	0.121263	0.311291	0.670553
86	H	0.037963	0.341506	0.678053
87	H	0.038072	0.197653	0.677884
88	C	0.109218	0.234989	0.375624
89	C	0.101044	0.249805	0.339323
90	N	0.123198	0.262054	0.638118
91	N	0.091349	0.224975	0.414457
92	H	0.098032	0.21603	0.439408
93	H	0.071834	0.227043	0.419068
94	C	0.100519	0.35216	0.33691
95	C	0.107494	0.374443	0.373184
96	C	0.138535	0.404657	0.375668
97	N	0.123772	0.362637	0.637198
98	H	0.130762	0.415932	0.439401
99	H	0.092464	0.366303	0.40098
100	C	0.095793	0.298484	0.005467
101	H	0.121263	0.311291	0.003886
102	C	0.109218	0.234989	0.708957
103	C	0.101044	0.249805	0.672656
104	N	0.123197	0.262054	0.971451
105	N	0.091349	0.224975	0.74779
106	H	0.098032	0.21603	0.772741
107	H	0.071834	0.227043	0.752401
108	C	0.100519	0.35216	0.670243
109	C	0.107494	0.374443	0.70652
110	C	0.138535	0.404657	0.709001
111	N	0.123772	0.362637	0.970531
112	H	0.130762	0.415932	0.772738
113	H	0.092464	0.366303	0.734316
114	C	0.026707	0.763907	0.34895
115	C	0.044501	0.799479	0.347322
116	C	0.07955	0.817208	0.341234
117	C	0.095794	0.798487	0.338801
118	C	0.079757	0.763567	0.342623
119	C	0.044567	0.746181	0.347508
120	C	0.026223	0.816228	0.347147
121	C	0.026285	0.711149	0.347029
122	H	0.121265	0.811291	0.33722
123	H	0.037964	0.841506	0.34472
124	H	0.038072	0.697653	0.344551
125	N	0.123198	0.762054	0.304784
126	C	0.100518	0.85216	0.003579
127	N	0.123773	0.86264	0.303863
128	C	0.026706	0.763907	0.682283
129	C	0.044501	0.799479	0.680655
130	C	0.07955	0.817208	0.674567
131	C	0.095796	0.798487	0.672134
132	C	0.079756	0.763567	0.675956
133	C	0.044567	0.746181	0.680844
134	C	0.026224	0.816228	0.68048
135	C	0.026284	0.711149	0.680362
136	H	0.121264	0.811291	0.670553
137	H	0.037963	0.841506	0.678053
138	H	0.038071	0.697653	0.677884
139	C	0.109219	0.734989	0.375624
140	C	0.101043	0.749805	0.339323
141	N	0.123197	0.762054	0.638118
142	N	0.091349	0.724975	0.414457
143	H	0.098033	0.716031	0.439408
144	H	0.071835	0.727044	0.419068
145	C	0.10052	0.85216	0.33691
146	C	0.107494	0.874443	0.373184
147	C	0.138536	0.904657	0.375668
148	N	0.123774	0.86264	0.637198
149	H	0.130761	0.915932	0.439401
150	H	0.092464	0.866303	0.40098
151	C	0.095794	0.798484	0.005467
152	H	0.121263	0.811291	0.003886
153	C	0.109219	0.734989	0.708957
154	C	0.101045	0.749805	0.672656
155	N	0.123197	0.762054	0.971451
156	N	0.091349	0.724975	0.74779
157	H	0.098032	0.716031	0.772741
158	H	0.071834	0.727044	0.752401
159	C	0.100519	0.85216	0.670243
160	C	0.107493	0.874443	0.70652
161	C	0.138536	0.904657	0.709001
162	N	0.123774	0.86264	0.970531
163	H	0.130763	0.915932	0.772738
164	H	0.092463	0.866303	0.734316
165	C	0.139489	0.234268	0.373106
166	C	0.139489	0.234268	0.706439
167	C	0.139489	0.734269	0.373106
168	C	0.139489	0.734269	0.706439
169	H	0.202562	0.311055	0.003758
170	H	0.202783	0.392575	0.003835
171	C	0.161701	0.24952	0.003394
172	N	0.151147	0.262183	0.303648
173	N	0.151596	0.390588	0.304952
174	C	0.196626	0.263426	0.341238
175	C	0.197559	0.211054	0.347174
176	H	0.202563	0.311055	0.337092
177	H	0.201444	0.1684	0.344592
178	H	0.172283	0.197527	0.344666
179	C	0.19659	0.434098	0.34263
180	C	0.1977	0.487595	0.347073
181	H	0.202783	0.392575	0.337169
182	H	0.201554	0.034116	0.344656
183	H	0.17242	0.475833	0.344531
184	C	0.161701	0.24952	0.336726
185	N	0.151147	0.262183	0.636982
186	H	0.147574	0.227289	0.400879
187	C	0.161533	0.412851	0.33937
188	N	0.151596	0.390588	0.638287
189	N	0.146409	0.422549	0.414484
190	H	0.167982	0.442081	0.419061
191	C	0.196626	0.263426	0.674571
192	C	0.19756	0.211054	0.680507
193	H	0.202563	0.311055	0.670425
194	H	0.201444	0.1684	0.677925
195	H	0.172283	0.197527	0.677999
196	C	0.19659	0.434098	0.675963
197	C	0.1977	0.487595	0.680406
198	H	0.202783	0.392575	0.670502
199	H	0.201554	0.034116	0.677989
200	H	0.17242	0.475833	0.677864
201	C	0.161701	0.24952	0.670061
202	N	0.151147	0.262183	0.970315
203	H	0.147574	0.227289	0.734212
204	C	0.161533	0.412851	0.672703
205	N	0.151595	0.390588	0.97162
206	N	0.146409	0.422549	0.747817
207	H	0.167982	0.442081	0.752394
208	H	0.202562	0.811055	0.003758
209	H	0.202784	0.892575	0.003835
210	C	0.161701	0.74952	0.003394
211	N	0.151146	0.762183	0.303648
212	N	0.151596	0.890588	0.304952
213	C	0.196627	0.763426	0.341238
214	C	0.19756	0.711055	0.347174
215	H	0.202563	0.811055	0.337092
216	H	0.201444	0.6684	0.344592
217	H	0.172283	0.697526	0.344666
218	C	0.196591	0.934098	0.34263
219	C	0.197701	0.987595	0.347073
220	H	0.202783	0.892575	0.337169
221	H	0.201554	0.534116	0.344656
222	H	0.17242	0.975833	0.344531
223	C	0.161701	0.74952	0.336726
224	N	0.151148	0.762183	0.636982
225	H	0.147574	0.72729	0.400879
226	C	0.161534	0.912851	0.33937
227	N	0.151596	0.890588	0.638287
228	N	0.146408	0.922549	0.414484
229	H	0.167981	0.942082	0.419061
230	C	0.196626	0.763426	0.674571
231	C	0.19756	0.711055	0.680507
232	H	0.202563	0.811055	0.670425
233	H	0.201444	0.6684	0.677925
234	H	0.172283	0.697527	0.677999
235	C	0.196591	0.934098	0.675963
236	C	0.1977	0.987595	0.680406
237	H	0.202782	0.892575	0.670502
238	H	0.201554	0.534116	0.677989
239	H	0.172422	0.975833	0.677864
240	C	0.161701	0.74952	0.670061
241	N	0.151147	0.762183	0.970315
242	H	0.147576	0.72729	0.734212
243	C	0.161534	0.912851	0.672703
244	N	0.151595	0.890588	0.97162
245	N	0.14641	0.922549	0.747817
246	H	0.167983	0.942082	0.752394
247	C	0.249899	0.263845	0.015669
248	C	0.214326	0.24608	0.014021
249	C	0.250277	0.31726	0.009315
250	C	0.267639	0.299437	0.014241
251	C	0.267727	0.246	0.015693
252	C	0.24999	0.210414	0.014236
253	C	0.267353	0.192584	0.009424
254	C	0.214958	0.193684	0.013717
255	C	0.250007	0.487126	0.015659
256	C	0.267768	0.469313	0.014022
257	C	0.250417	0.434262	0.007922
258	C	0.214419	0.469283	0.014221
259	C	0.267858	0.0228	0.015653
260	C	0.267451	0.075666	0.00791
261	C	0.250101	0.040618	0.014038
262	C	0.215075	0.022365	0.013885
263	C	0.264044	0.352313	0.00601
264	C	0.238222	0.10356	0.03985
265	C	0.238841	0.134501	0.042383
266	C	0.253492	0.157525	0.006085
267	N	0.22878	0.142299	0.08122
268	H	0.219906	0.126677	0.106184
269	H	0.230696	0.163822	0.08579
270	H	0.23127	0.088483	0.067607
271	C	0.2499	0.763845	0.015669
272	C	0.214327	0.746081	0.014021
273	C	0.250277	0.81726	0.009315
274	C	0.267639	0.799437	0.014241
275	C	0.267727	0.745999	0.015693
276	C	0.24999	0.710415	0.014236
277	C	0.267354	0.692584	0.009424
278	C	0.214959	0.693686	0.013717
279	C	0.250008	0.987126	0.015659
280	C	0.267769	0.969316	0.014022
281	C	0.250418	0.934262	0.007922
282	C	0.214422	0.969286	0.014221
283	C	0.267858	0.5228	0.015653
284	C	0.267452	0.575667	0.00791
285	C	0.250102	0.540618	0.014038
286	C	0.215076	0.522366	0.013885
287	C	0.264044	0.852314	0.00601
288	C	0.238222	0.60356	0.03985
289	C	0.238842	0.634502	0.042383
290	C	0.253493	0.657526	0.006085
291	N	0.228781	0.6423	0.08122
292	H	0.219907	0.626677	0.106184
293	H	0.230697	0.663822	0.08579
294	H	0.231271	0.588483	0.067607
295	C	0.215361	0.298385	0.005453
296	C	0.215453	0.418044	0.00547
297	C	0.264324	0.413231	0.003475
298	N	0.251779	0.362228	0.304827
299	N	0.251642	0.390047	0.303697
300	C	0.253556	0.096701	0.003485
301	N	0.265925	0.14771	0.304972
302	N	0.266207	0.119967	0.303804
303	C	0.2499	0.263845	0.349001
304	C	0.214327	0.24608	0.347356
305	C	0.215361	0.298385	0.338787
306	C	0.250277	0.31726	0.342647
307	C	0.26764	0.299437	0.347575
308	C	0.267727	0.245999	0.349028
309	C	0.24999	0.210414	0.347572
310	C	0.267353	0.192584	0.342758
311	C	0.214958	0.193684	0.347049
312	C	0.250007	0.487126	0.348994
313	C	0.267768	0.469313	0.347356
314	C	0.250417	0.434262	0.341255
315	C	0.215453	0.418044	0.338804
316	C	0.21442	0.469283	0.347555
317	C	0.267859	0.0228	0.348987
318	C	0.267452	0.075666	0.341245
319	C	0.250103	0.040618	0.347373
320	C	0.215075	0.022365	0.347218
321	C	0.264324	0.413231	0.336807
322	C	0.264044	0.352314	0.339343
323	N	0.251779	0.362228	0.638162
324	N	0.251641	0.390047	0.637029
325	C	0.253556	0.096701	0.336816
326	C	0.238222	0.10356	0.373184
327	C	0.238841	0.134501	0.375715
328	C	0.253492	0.157525	0.339418
329	N	0.265925	0.14771	0.638307
330	N	0.266207	0.119967	0.637137
331	N	0.22878	0.142298	0.414554
332	H	0.219906	0.126677	0.439519
333	H	0.230697	0.163822	0.419125
334	H	0.231271	0.088483	0.400939
335	C	0.2499	0.263845	0.682337
336	C	0.214327	0.24608	0.680689
337	C	0.215362	0.298385	0.67212
338	C	0.250277	0.31726	0.675983
339	C	0.26764	0.299437	0.680908
340	C	0.267727	0.245999	0.682361
341	C	0.24999	0.210414	0.680905
342	C	0.267354	0.192584	0.676091
343	C	0.214958	0.193684	0.680382
344	C	0.250007	0.487126	0.682327
345	C	0.267768	0.469313	0.680689
346	C	0.250417	0.434262	0.674588
347	C	0.215453	0.418044	0.672137
348	C	0.21442	0.469283	0.680888
349	C	0.267859	0.0228	0.682321
350	C	0.267452	0.075666	0.674578
351	C	0.250102	0.040618	0.680706
352	C	0.215075	0.022365	0.680554
353	C	0.264324	0.413231	0.670142
354	C	0.264044	0.352314	0.672676
355	N	0.251779	0.362228	0.971495
356	N	0.251641	0.390047	0.970362
357	C	0.253556	0.096701	0.670148
358	C	0.238222	0.10356	0.706517
359	C	0.238841	0.134501	0.709052
360	C	0.253492	0.157525	0.672754
361	N	0.265924	0.14771	0.97164
362	N	0.266206	0.119967	0.97047
363	N	0.22878	0.142298	0.747888
364	H	0.219906	0.126677	0.772852
365	H	0.230696	0.163822	0.752458
366	H	0.231271	0.088483	0.734273
367	C	0.215361	0.798385	0.005453
368	C	0.215454	0.918044	0.00547
369	C	0.264325	0.913234	0.003475
370	N	0.25178	0.862228	0.304827
371	N	0.251642	0.890047	0.303697
372	C	0.253556	0.5967	0.003485
373	N	0.265926	0.647712	0.304972
374	N	0.266207	0.619967	0.303804
375	C	0.2499	0.763845	0.349001
376	C	0.214328	0.746081	0.347356
377	C	0.215362	0.798385	0.338787
378	C	0.250278	0.81726	0.342647
379	C	0.26764	0.799437	0.347575
380	C	0.267728	0.745999	0.349028
381	C	0.249991	0.710415	0.347572
382	C	0.267354	0.692584	0.342758
383	C	0.214959	0.693686	0.347049
384	C	0.250007	0.987126	0.348994
385	C	0.26777	0.969316	0.347356
386	C	0.250417	0.934262	0.341255
387	C	0.215453	0.918044	0.338804
388	C	0.214421	0.969286	0.347555
389	C	0.267859	0.5228	0.348987
390	C	0.267452	0.575667	0.341245
391	C	0.250102	0.540618	0.347373
392	C	0.215076	0.522366	0.347218
393	C	0.264325	0.913234	0.336807
394	C	0.264044	0.852314	0.339343
395	N	0.251779	0.862228	0.638162
396	N	0.251642	0.890047	0.637029
397	C	0.253556	0.5967	0.336816
398	C	0.238222	0.60356	0.373184
399	C	0.238841	0.6345	0.375715
400	C	0.253493	0.657526	0.339418
401	N	0.265926	0.647712	0.638307
402	N	0.266207	0.619967	0.637137
403	N	0.228781	0.6423	0.414554
404	H	0.219907	0.626677	0.439519
405	H	0.230697	0.663822	0.419125
406	H	0.231271	0.588483	0.400939
407	C	0.2499	0.763845	0.682337
408	C	0.214327	0.746081	0.680689
409	C	0.215362	0.798385	0.67212
410	C	0.250277	0.81726	0.675983
411	C	0.26764	0.799437	0.680908
412	C	0.267728	0.745999	0.682361
413	C	0.249991	0.710415	0.680905
414	C	0.267354	0.692584	0.676091
415	C	0.214959	0.693686	0.680382
416	C	0.250007	0.987126	0.682327
417	C	0.26777	0.969316	0.680689
418	C	0.250417	0.934262	0.674588
419	C	0.215453	0.918044	0.672137
420	C	0.214421	0.969286	0.680888
421	C	0.267859	0.5228	0.682321
422	C	0.267452	0.575667	0.674578
423	C	0.250102	0.540618	0.680706
424	C	0.215076	0.522366	0.680554
425	C	0.264325	0.913234	0.670142
426	C	0.264045	0.852314	0.672676
427	N	0.251779	0.862228	0.971495
428	N	0.251642	0.890047	0.970362
429	C	0.253556	0.5967	0.670148
430	C	0.238222	0.60356	0.706517
431	C	0.238841	0.6345	0.709052
432	C	0.253493	0.657526	0.672754
433	N	0.265925	0.647712	0.97164
434	N	0.266207	0.619967	0.97047
435	N	0.228781	0.6423	0.747888
436	H	0.219907	0.626677	0.772852
437	H	0.230697	0.663822	0.752458
438	H	0.231271	0.588483	0.734273
439	C	0.302669	0.316161	0.013767
440	C	0.302281	0.211449	0.005745
441	C	0.321016	0.246418	0.008106
442	C	0.3033	0.263763	0.014112
443	C	0.32007	0.298792	0.013967
444	H	0.345346	0.31232	0.011459
445	H	0.316178	0.341444	0.011268
446	C	0.302795	0.487565	0.013865
447	C	0.303447	0.040642	0.014197
448	C	0.321273	0.075826	0.009255
449	C	0.32017	0.022333	0.013735
450	H	0.345449	0.034101	0.011189
451	H	0.316311	0.475806	0.011334
452	C	0.279611	0.406304	0.039825
453	C	0.278892	0.375309	0.042302
454	N	0.288917	0.367459	0.08113
455	H	0.297877	0.383092	0.106075
456	H	0.286841	0.345875	0.085744
457	H	0.286599	0.421371	0.067596
458	C	0.378227	0.275689	0.040082
459	C	0.408507	0.274989	0.04254
460	C	0.416757	0.260267	0.006221
461	N	0.426448	0.285086	0.081311
462	H	0.419763	0.294005	0.10629
463	H	0.446004	0.283079	0.085859
464	H	0.370168	0.282692	0.067853
465	C	0.410274	0.135626	0.039886
466	C	0.379307	0.105323	0.042313
467	C	0.356329	0.097075	0.005973
468	N	0.371448	0.087451	0.081147
469	H	0.387052	0.094156	0.10613
470	H	0.349889	0.067895	0.085713
471	H	0.425313	0.143724	0.067683
472	C	0.491032	0.246063	0.01564
473	C	0.473165	0.263785	0.014234
474	C	0.43797	0.246404	0.009425
475	C	0.438186	0.192769	0.008005
476	C	0.473242	0.210491	0.01402
477	C	0.491452	0.298817	0.013785
478	C	0.491514	0.193737	0.013823
479	H	0.479676	0.312323	0.011283
480	H	0.479768	0.168458	0.011381
481	C	0.30267	0.816161	0.013767
482	C	0.302282	0.71145	0.005745
483	C	0.321016	0.746419	0.008106
484	C	0.3033	0.763763	0.014112
485	C	0.32007	0.798792	0.013967
486	H	0.345346	0.81232	0.011459
487	H	0.316179	0.841444	0.011268
488	C	0.302795	0.987565	0.013865
489	C	0.303447	0.540643	0.014197
490	C	0.321275	0.575828	0.009255
491	C	0.32017	0.522334	0.013735
492	H	0.345449	0.534101	0.011189
493	H	0.316311	0.975806	0.011334
494	C	0.279612	0.906304	0.039825
495	C	0.278893	0.875312	0.042302
496	N	0.288917	0.867459	0.08113
497	H	0.297878	0.883092	0.106075
498	H	0.286842	0.845875	0.085744
499	H	0.286599	0.921371	0.067596
500	C	0.378228	0.775689	0.040082
501	C	0.408509	0.774992	0.04254
502	C	0.416758	0.760267	0.006221
503	N	0.426448	0.785086	0.081311
504	H	0.419764	0.794005	0.10629
505	H	0.446004	0.783079	0.085859
506	H	0.370168	0.782692	0.067853
507	C	0.410274	0.635626	0.039886
508	C	0.379308	0.605324	0.042313
509	C	0.356329	0.597075	0.005973
510	N	0.371449	0.587451	0.081147
511	H	0.387052	0.594157	0.10613
512	H	0.349891	0.567896	0.085713
513	H	0.425313	0.643724	0.067683
514	C	0.491033	0.746064	0.01564
515	C	0.473167	0.763785	0.014234
516	C	0.437969	0.746404	0.009425
517	C	0.438187	0.692771	0.008005
518	C	0.473243	0.710492	0.01402
519	C	0.491454	0.798819	0.013785
520	C	0.491515	0.693738	0.013823
521	H	0.479677	0.812323	0.011283
522	H	0.479768	0.668457	0.011381
523	C	0.749899	0.263845	0.015669
524	C	0.714327	0.24608	0.014021
525	C	0.696626	0.263426	0.007903
526	C	0.750275	0.31726	0.009315
527	C	0.767639	0.299437	0.014241
528	C	0.697559	0.211054	0.013839
529	C	0.802669	0.316161	0.013767
530	C	0.767726	0.246	0.015693
531	C	0.749989	0.210414	0.014236
532	C	0.767353	0.192584	0.009424
533	C	0.80228	0.211449	0.005745
534	C	0.821015	0.246418	0.008106
535	C	0.803299	0.263763	0.014112
536	C	0.714958	0.193684	0.013717
537	C	0.82007	0.298792	0.013967
538	H	0.701443	0.1684	0.011259
539	H	0.672281	0.197527	0.011333
540	H	0.845346	0.31232	0.011459
541	H	0.816179	0.341444	0.011268
542	C	0.750007	0.487126	0.015659
543	C	0.767769	0.469313	0.014022
544	C	0.750417	0.434262	0.007922
545	C	0.696591	0.434098	0.009297
546	C	0.71442	0.469283	0.014221
547	C	0.802796	0.487565	0.013865
548	C	0.6977	0.487595	0.013738
549	C	0.767858	0.0228	0.015653
550	C	0.803445	0.040642	0.014197
551	C	0.821273	0.075826	0.009255
552	C	0.767451	0.075666	0.00791
553	C	0.750101	0.040618	0.014038
554	C	0.820168	0.022333	0.013735
555	C	0.715076	0.022365	0.013885
556	H	0.845449	0.034101	0.011189
557	H	0.816311	0.475806	0.011334
558	H	0.701554	0.034116	0.011323
559	H	0.67242	0.475833	0.011198
560	C	0.639489	0.234268	0.039773
561	C	0.609217	0.234989	0.04229
562	C	0.601043	0.249805	0.005989
563	N	0.591349	0.224974	0.081123
564	H	0.59803	0.21603	0.106073
565	H	0.571834	0.227043	0.085733
566	H	0.647573	0.227289	0.067545
567	C	0.779612	0.406304	0.039825
568	C	0.778892	0.375309	0.042302
569	C	0.764044	0.352313	0.00601
570	N	0.788916	0.367459	0.08113
571	H	0.797878	0.383092	0.106075
572	H	0.786841	0.345875	0.085744
573	H	0.786597	0.421371	0.067596
574	C	0.607493	0.374443	0.039852
575	C	0.638536	0.404656	0.042335
576	C	0.661532	0.412851	0.006037
577	N	0.646408	0.422549	0.081151
578	H	0.630761	0.415932	0.106069
579	H	0.667981	0.442081	0.085727
580	H	0.592464	0.366303	0.067648
581	C	0.878227	0.275689	0.040082
582	C	0.908507	0.274989	0.04254
583	C	0.916758	0.260267	0.006221
584	N	0.926448	0.285086	0.081311
585	H	0.919763	0.294005	0.10629
586	H	0.946004	0.283079	0.085859
587	H	0.870168	0.282692	0.067853
588	C	0.738221	0.10356	0.03985
589	C	0.73884	0.134501	0.042383
590	C	0.753491	0.157525	0.006085
591	N	0.72878	0.142299	0.08122
592	H	0.719906	0.126677	0.106184
593	H	0.730696	0.163822	0.08579
594	H	0.731269	0.088483	0.067607
595	C	0.910274	0.135626	0.039886
596	C	0.879307	0.105323	0.042313
597	C	0.856329	0.097075	0.005973
598	N	0.871448	0.087451	0.081147
599	H	0.887052	0.094156	0.10613
600	H	0.849889	0.067895	0.085713
601	H	0.925311	0.143724	0.067683
602	C	0.526704	0.263907	0.015616
603	C	0.544499	0.299479	0.013987
604	C	0.57955	0.317208	0.0079
605	C	0.579754	0.263567	0.009289
606	C	0.544567	0.246181	0.014175
607	C	0.526222	0.316228	0.013812
608	C	0.526282	0.21115	0.013696
609	C	0.991033	0.246063	0.01564
610	C	0.973166	0.263785	0.014234
611	C	0.937968	0.246404	0.009425
612	C	0.938186	0.192769	0.008005
613	C	0.973242	0.210491	0.01402
614	C	0.991452	0.298817	0.013785
615	C	0.991514	0.193737	0.013823
616	H	0.979676	0.312323	0.011283
617	H	0.537961	0.341506	0.011386
618	H	0.979768	0.168458	0.011381
619	H	0.53807	0.197653	0.011219
620	C	0.7499	0.763845	0.015669
621	C	0.714326	0.746081	0.014021
622	C	0.696625	0.763426	0.007903
623	C	0.750277	0.81726	0.009315
624	C	0.76764	0.799437	0.014241
625	C	0.697559	0.711055	0.013839
626	C	0.80267	0.816161	0.013767
627	C	0.767727	0.745999	0.015693
628	C	0.74999	0.710415	0.014236
629	C	0.767354	0.692584	0.009424
630	C	0.802282	0.71145	0.005745
631	C	0.821017	0.746419	0.008106
632	C	0.8033	0.763763	0.014112
633	C	0.714958	0.693686	0.013717
634	C	0.820069	0.798792	0.013967
635	H	0.701442	0.6684	0.011259
636	H	0.672282	0.697526	0.011333
637	H	0.845345	0.81232	0.011459
638	H	0.816178	0.841444	0.011268
639	C	0.750006	0.987126	0.015659
640	C	0.767769	0.969316	0.014022
641	C	0.750416	0.934262	0.007922
642	C	0.696591	0.934101	0.009297
643	C	0.71442	0.969286	0.014221
644	C	0.802795	0.987565	0.013865
645	C	0.6977	0.987595	0.013738
646	C	0.767859	0.5228	0.015653
647	C	0.803446	0.540643	0.014197
648	C	0.821275	0.575828	0.009255
649	C	0.767452	0.575667	0.00791
650	C	0.750102	0.540618	0.014038
651	C	0.820169	0.522334	0.013735
652	C	0.715075	0.522366	0.013885
653	H	0.845448	0.534101	0.011189
654	H	0.816312	0.975806	0.011334
655	H	0.701553	0.534116	0.011323
656	H	0.67242	0.975833	0.011198
657	C	0.639488	0.734269	0.039773
658	C	0.609218	0.734989	0.04229
659	C	0.601042	0.749805	0.005989
660	N	0.591348	0.724975	0.081123
661	H	0.598032	0.716031	0.106073
662	H	0.571834	0.727044	0.085733
663	H	0.647575	0.72729	0.067545
664	C	0.779611	0.906304	0.039825
665	C	0.778892	0.875312	0.042302
666	C	0.764043	0.852314	0.00601
667	N	0.788917	0.867459	0.08113
668	H	0.797877	0.883092	0.106075
669	H	0.786842	0.845875	0.085744
670	H	0.786599	0.921371	0.067596
671	C	0.607493	0.874443	0.039852
672	C	0.638535	0.904657	0.042335
673	C	0.661533	0.912851	0.006037
674	N	0.646409	0.922549	0.081151
675	H	0.630762	0.915932	0.106069
676	H	0.667982	0.942082	0.085727
677	H	0.592464	0.866303	0.067648
678	C	0.878228	0.775689	0.040082
679	C	0.90851	0.774992	0.04254
680	C	0.916757	0.760267	0.006221
681	N	0.926447	0.785086	0.081311
682	H	0.919764	0.794005	0.10629
683	H	0.946003	0.783079	0.085859
684	H	0.870169	0.782692	0.067853
685	C	0.738222	0.60356	0.03985
686	C	0.738842	0.634502	0.042383
687	C	0.753493	0.657526	0.006085
688	N	0.72878	0.6423	0.08122
689	H	0.719907	0.626677	0.106184
690	H	0.730697	0.663822	0.08579
691	H	0.73127	0.588483	0.067607
692	C	0.910273	0.635626	0.039886
693	C	0.879309	0.605324	0.042313
694	C	0.856328	0.597075	0.005973
695	N	0.871449	0.587451	0.081147
696	H	0.887051	0.594157	0.10613
697	H	0.849891	0.567896	0.085713
698	H	0.925312	0.643724	0.067683
699	C	0.526705	0.763907	0.015616
700	C	0.5445	0.799479	0.013987
701	C	0.57955	0.817208	0.0079
702	C	0.579755	0.763567	0.009289
703	C	0.544567	0.746183	0.014175
704	C	0.526222	0.816228	0.013812
705	C	0.526283	0.711149	0.013696
706	C	0.991032	0.746064	0.01564
707	C	0.973167	0.763785	0.014234
708	C	0.937969	0.746404	0.009425
709	C	0.938185	0.692771	0.008005
710	C	0.973244	0.710492	0.01402
711	C	0.991455	0.798819	0.013785
712	C	0.991516	0.693738	0.013823
713	H	0.979677	0.812323	0.011283
714	H	0.537964	0.841509	0.011386
715	H	0.979767	0.668457	0.011381
716	H	0.538071	0.697653	0.011219
717	C	0.491034	0.246062	0.348974
718	C	0.473166	0.263783	0.347568
719	C	0.437969	0.246403	0.342758
720	C	0.421933	0.211482	0.338946
721	C	0.438187	0.192768	0.341339
722	C	0.473244	0.210491	0.347353
723	C	0.491454	0.298817	0.34712
724	H	0.396463	0.198664	0.337398
725	C	0.491515	0.193737	0.347157
726	H	0.479678	0.312323	0.344615
727	H	0.479769	0.168457	0.344713
728	H	0.315079	0.198776	0.004193
729	C	0.302411	0.09188	0.005416
730	H	0.315083	0.117348	0.003727
731	C	0.355964	0.260384	0.003798
732	N	0.394445	0.247791	0.305189
733	N	0.366455	0.247588	0.304121
734	C	0.417194	0.157832	0.003532
735	N	0.366248	0.119314	0.304847
736	N	0.394025	0.14731	0.303738
737	C	0.491033	0.246062	0.682307
738	C	0.473165	0.263783	0.680901
739	C	0.43797	0.246403	0.676091
740	C	0.421932	0.211482	0.672279
741	C	0.438186	0.192768	0.674672
742	C	0.473243	0.210491	0.680686
743	C	0.491453	0.298817	0.680453
744	H	0.396463	0.198664	0.670735
745	C	0.491517	0.193737	0.68049
746	H	0.479677	0.312323	0.677952
747	H	0.479769	0.168457	0.67805
748	C	0.30267	0.316161	0.3471
749	C	0.302281	0.211448	0.33908
750	C	0.321016	0.246418	0.34144
751	C	0.3033	0.263763	0.347447
752	H	0.315078	0.198776	0.337526
753	C	0.32007	0.298792	0.347302
754	H	0.345346	0.31232	0.344794
755	H	0.316179	0.341444	0.344602
756	C	0.302794	0.487563	0.347198
757	C	0.303446	0.040642	0.347531
758	C	0.321275	0.075826	0.34259
759	C	0.30241	0.09188	0.33875
760	C	0.320169	0.022333	0.347069
761	H	0.315082	0.117348	0.337061
762	H	0.345448	0.034101	0.344524
763	H	0.316311	0.475806	0.344666
764	C	0.279611	0.406304	0.37316
765	C	0.278892	0.375309	0.375634
766	N	0.288917	0.367459	0.414463
767	H	0.297877	0.383092	0.439408
768	H	0.286841	0.345875	0.419078
769	H	0.286599	0.421371	0.400929
770	C	0.355963	0.260384	0.337129
771	C	0.378228	0.275689	0.373416
772	C	0.408509	0.274989	0.375874
773	C	0.416758	0.260265	0.339556
774	N	0.394444	0.247791	0.638523
775	N	0.366454	0.247588	0.637454
776	N	0.426449	0.285086	0.414645
777	H	0.419764	0.294005	0.439624
778	H	0.446005	0.283079	0.419193
779	H	0.370169	0.282692	0.401186
780	C	0.417195	0.157831	0.336865
781	C	0.410275	0.135625	0.373221
782	C	0.379308	0.105322	0.375648
783	C	0.356328	0.097075	0.339306
784	N	0.366248	0.119314	0.638179
785	N	0.394024	0.14731	0.637073
786	N	0.371449	0.087451	0.41448
787	H	0.387051	0.094156	0.439465
788	H	0.349891	0.067895	0.419048
789	H	0.425312	0.143723	0.401017
790	C	0.421932	0.211483	0.005612
791	H	0.396463	0.198666	0.004068
792	C	0.30267	0.316161	0.680433
793	C	0.302281	0.211448	0.672413
794	C	0.321016	0.246418	0.674773
795	C	0.3033	0.263763	0.68078
796	H	0.31508	0.198776	0.67086
797	C	0.32007	0.298792	0.680635
798	H	0.345346	0.31232	0.678127
799	H	0.316179	0.341444	0.677935
800	C	0.302794	0.487563	0.680531
801	C	0.303446	0.040642	0.680864
802	C	0.321274	0.075826	0.675923
803	C	0.302411	0.09188	0.672083
804	C	0.320169	0.022333	0.680402
805	H	0.315083	0.117348	0.670394
806	H	0.34545	0.034101	0.677857
807	H	0.316311	0.475806	0.678002
808	C	0.279611	0.406304	0.706493
809	C	0.278892	0.375309	0.708967
810	N	0.288917	0.367459	0.747797
811	H	0.297877	0.383092	0.772741
812	H	0.286842	0.345875	0.752411
813	H	0.286599	0.421371	0.734262
814	C	0.355965	0.260384	0.670462
815	C	0.378228	0.275689	0.706749
816	C	0.408508	0.274989	0.709207
817	C	0.416757	0.260265	0.672889
818	N	0.394444	0.247793	0.971856
819	N	0.366454	0.247589	0.970787
820	N	0.426449	0.285086	0.747979
821	H	0.419764	0.294005	0.772957
822	H	0.446005	0.283079	0.752526
823	H	0.370169	0.282692	0.734519
824	C	0.417194	0.157831	0.670199
825	C	0.410275	0.135625	0.706554
826	C	0.379307	0.105322	0.708981
827	C	0.35633	0.097075	0.672639
828	N	0.366247	0.119314	0.971515
829	N	0.394024	0.14731	0.970406
830	N	0.371449	0.087451	0.747813
831	H	0.387051	0.094156	0.772798
832	H	0.34989	0.067895	0.752381
833	H	0.425314	0.143723	0.73435
834	C	0.491034	0.746064	0.348974
835	C	0.473166	0.763783	0.347568
836	C	0.43797	0.746404	0.342758
837	C	0.421933	0.711482	0.338946
838	C	0.438187	0.692768	0.341339
839	C	0.473244	0.710492	0.347353
840	C	0.491454	0.798817	0.34712
841	H	0.396463	0.698663	0.337398
842	C	0.491517	0.693738	0.347157
843	H	0.479678	0.812323	0.344615
844	H	0.47977	0.668457	0.344713
845	H	0.315079	0.698777	0.004193
846	C	0.30241	0.59188	0.005416
847	H	0.315083	0.617349	0.003727
848	C	0.355964	0.760384	0.003798
849	N	0.394444	0.747791	0.305189
850	N	0.366454	0.747588	0.304121
851	C	0.417195	0.657834	0.003532
852	N	0.366248	0.619315	0.304847
853	N	0.394025	0.64731	0.303738
854	C	0.491034	0.746064	0.682307
855	C	0.473166	0.763783	0.680901
856	C	0.43797	0.746404	0.676091
857	C	0.421933	0.711482	0.672279
858	C	0.438187	0.692768	0.674672
859	C	0.473244	0.710492	0.680686
860	C	0.491454	0.798817	0.680453
861	H	0.396463	0.698663	0.670735
862	C	0.491517	0.693738	0.68049
863	H	0.479678	0.812323	0.677952
864	H	0.47977	0.668457	0.67805
865	C	0.30267	0.816161	0.3471
866	C	0.302282	0.71145	0.33908
867	C	0.321017	0.746419	0.34144
868	C	0.303301	0.763763	0.347447
869	H	0.31508	0.698777	0.337526
870	C	0.320071	0.798792	0.347302
871	H	0.345347	0.81232	0.344794
872	H	0.316179	0.841444	0.344602
873	C	0.302796	0.987565	0.347198
874	C	0.303447	0.540643	0.347531
875	C	0.321274	0.575826	0.34259
876	C	0.302411	0.59188	0.33875
877	C	0.32017	0.522334	0.347069
878	H	0.315084	0.617349	0.337061
879	H	0.345449	0.534101	0.344524
880	H	0.316312	0.975806	0.344666
881	C	0.279612	0.906304	0.37316
882	C	0.278892	0.875309	0.375634
883	N	0.288917	0.867459	0.414463
884	H	0.297878	0.883092	0.439408
885	H	0.286842	0.845875	0.419078
886	H	0.286599	0.921371	0.400929
887	C	0.355964	0.760384	0.337129
888	C	0.378229	0.775689	0.373416
889	C	0.408509	0.774989	0.375874
890	C	0.416757	0.760265	0.339556
891	N	0.394444	0.747791	0.638523
892	N	0.366454	0.747588	0.637454
893	N	0.426448	0.785086	0.414645
894	H	0.419765	0.794005	0.439624
895	H	0.446005	0.783079	0.419193
896	H	0.370169	0.782692	0.401186
897	C	0.417195	0.657831	0.336865
898	C	0.410275	0.635626	0.373221
899	C	0.379307	0.605321	0.375648
900	C	0.356329	0.597075	0.339306
901	N	0.366248	0.619315	0.638179
902	N	0.394025	0.64731	0.637073
903	N	0.371449	0.587451	0.41448
904	H	0.387052	0.594157	0.439465
905	H	0.349891	0.567896	0.419048
906	H	0.425314	0.643724	0.401017
907	C	0.421933	0.711484	0.005612
908	H	0.396464	0.698665	0.004068
909	C	0.30267	0.816161	0.680433
910	C	0.302282	0.71145	0.672413
911	C	0.321017	0.746419	0.674773
912	C	0.303301	0.763763	0.68078
913	H	0.31508	0.698777	0.67086
914	C	0.320071	0.798792	0.680635
915	H	0.345346	0.81232	0.678127
916	H	0.316179	0.841444	0.677935
917	C	0.302796	0.987565	0.680531
918	C	0.303447	0.540643	0.680864
919	C	0.321274	0.575826	0.675923
920	C	0.302411	0.59188	0.672083
921	C	0.32017	0.522334	0.680402
922	H	0.315084	0.617349	0.670394
923	H	0.345449	0.534101	0.677857
924	H	0.316312	0.975806	0.678002
925	C	0.279612	0.906304	0.706493
926	C	0.278892	0.875309	0.708967
927	N	0.288917	0.867459	0.747797
928	H	0.297878	0.883092	0.772741
929	H	0.286842	0.845875	0.752411
930	H	0.286599	0.921371	0.734262
931	C	0.355964	0.760384	0.670462
932	C	0.378229	0.775689	0.706749
933	C	0.408509	0.774989	0.709207
934	C	0.416757	0.760265	0.672889
935	N	0.394445	0.747794	0.971856
936	N	0.366455	0.74759	0.970787
937	N	0.426448	0.785086	0.747979
938	H	0.419765	0.794005	0.772957
939	H	0.446005	0.783079	0.752526
940	H	0.370169	0.782692	0.734519
941	C	0.417195	0.657831	0.670199
942	C	0.410275	0.635626	0.706554
943	C	0.379307	0.605321	0.708981
944	C	0.356329	0.597075	0.672639
945	N	0.366247	0.619315	0.971515
946	N	0.394023	0.64731	0.970406
947	N	0.371449	0.587451	0.747813
948	H	0.387052	0.594157	0.772798
949	H	0.349891	0.567896	0.752381
950	H	0.425314	0.643724	0.73435
951	C	0.526706	0.263907	0.34895
952	C	0.5445	0.299479	0.347322
953	C	0.579549	0.317208	0.341234
954	C	0.595794	0.298484	0.338801
955	C	0.579756	0.263567	0.342623
956	C	0.544567	0.246181	0.347508
957	C	0.52622	0.316225	0.347147
958	C	0.526284	0.21115	0.347029
959	H	0.621264	0.311291	0.33722
960	C	0.991032	0.246062	0.348974
961	C	0.973166	0.263783	0.347568
962	C	0.937969	0.246403	0.342758
963	C	0.921933	0.211482	0.338946
964	C	0.938187	0.192768	0.341339
965	C	0.973244	0.210491	0.347353
966	C	0.991454	0.298817	0.34712
967	H	0.896462	0.198664	0.337398
968	C	0.991515	0.193737	0.347157
969	H	0.979678	0.312323	0.344615
970	H	0.537963	0.341506	0.34472
971	H	0.979769	0.168457	0.344713
972	H	0.538071	0.197653	0.344551
973	C	0.715361	0.298385	0.005453
974	H	0.702563	0.311055	0.003758
975	H	0.815079	0.198776	0.004193
976	C	0.715453	0.418044	0.00547
977	H	0.702783	0.392575	0.003835
978	C	0.802409	0.09188	0.005416
979	H	0.815083	0.117348	0.003727
980	C	0.661701	0.24952	0.003394
981	N	0.623197	0.262054	0.304784
982	N	0.651148	0.262183	0.303648
983	C	0.764322	0.413231	0.003475
984	N	0.75178	0.362228	0.304827
985	N	0.751642	0.390047	0.303697
986	C	0.60052	0.35216	0.003579
987	N	0.651596	0.390588	0.304952
988	N	0.623773	0.362637	0.303863
989	C	0.855962	0.260384	0.003798
990	N	0.894443	0.247791	0.305189
991	N	0.866453	0.247588	0.304121
992	C	0.753557	0.096701	0.003485
993	N	0.765924	0.14771	0.304972
994	N	0.766207	0.119967	0.303804
995	C	0.917194	0.157832	0.003532
996	N	0.866246	0.119314	0.304847
997	N	0.894023	0.14731	0.303738
998	C	0.526705	0.263907	0.682283
999	C	0.5445	0.299479	0.680655
1000	C	0.579551	0.317208	0.674567
1001	C	0.595793	0.298484	0.672134
1002	C	0.579755	0.263567	0.675956
1003	C	0.544566	0.246181	0.680844
1004	C	0.526222	0.316225	0.68048
1005	C	0.526285	0.21115	0.680362
1006	H	0.621263	0.311291	0.670553
1007	C	0.991033	0.246062	0.682307
1008	C	0.973165	0.263783	0.680901
1009	C	0.937968	0.246403	0.676091
1010	C	0.921932	0.211482	0.672279
1011	C	0.938186	0.192768	0.674672
1012	C	0.973243	0.210491	0.680686
1013	C	0.991453	0.298817	0.680453
1014	H	0.896463	0.198664	0.670735
1015	C	0.991515	0.193737	0.68049
1016	H	0.979677	0.312323	0.677952
1017	H	0.537962	0.341506	0.678053
1018	H	0.979769	0.168457	0.67805
1019	H	0.538073	0.197653	0.677884
1020	C	0.7499	0.263845	0.349001
1021	C	0.714326	0.24608	0.347356
1022	C	0.696625	0.263426	0.341238
1023	C	0.715362	0.298385	0.338787
1024	C	0.750277	0.31726	0.342647
1025	C	0.76764	0.299437	0.347575
1026	C	0.697559	0.211054	0.347174
1027	C	0.80267	0.316161	0.3471
1028	H	0.702562	0.311055	0.337092
1029	C	0.767727	0.245999	0.349028
1030	C	0.74999	0.210414	0.347572
1031	C	0.767352	0.192584	0.342758
1032	C	0.802282	0.211448	0.33908
1033	C	0.821015	0.246418	0.34144
1034	C	0.803301	0.263763	0.347447
1035	C	0.714957	0.193684	0.347049
1036	H	0.815078	0.198776	0.337526
1037	C	0.820069	0.298792	0.347302
1038	H	0.701443	0.1684	0.344592
1039	H	0.672283	0.197527	0.344666
1040	H	0.845346	0.31232	0.344794
1041	H	0.816178	0.341444	0.344602
1042	C	0.750007	0.487126	0.348994
1043	C	0.767768	0.469313	0.347356
1044	C	0.750416	0.434262	0.341255
1045	C	0.715452	0.418044	0.338804
1046	C	0.69659	0.434098	0.34263
1047	C	0.714419	0.469283	0.347555
1048	C	0.802794	0.487563	0.347198
1049	C	0.6977	0.487595	0.347073
1050	H	0.702782	0.392575	0.337169
1051	C	0.767857	0.0228	0.348987
1052	C	0.803446	0.040642	0.347531
1053	C	0.821275	0.075826	0.34259
1054	C	0.80241	0.09188	0.33875
1055	C	0.76745	0.075666	0.341245
1056	C	0.750101	0.040618	0.347373
1057	C	0.820169	0.022333	0.347069
1058	H	0.815082	0.117348	0.337061
1059	C	0.715075	0.022365	0.347218
1060	H	0.845448	0.034101	0.344524
1061	H	0.81631	0.475806	0.344666
1062	H	0.701553	0.034116	0.344656
1063	H	0.672419	0.475833	0.344531
1064	C	0.6617	0.24952	0.336726
1065	C	0.639488	0.234268	0.373106
1066	C	0.609218	0.234989	0.375624
1067	C	0.601042	0.249805	0.339323
1068	N	0.623196	0.262054	0.638118
1069	N	0.651147	0.262183	0.636982
1070	N	0.591348	0.224975	0.414457
1071	H	0.598032	0.21603	0.439408
1072	H	0.571834	0.227043	0.419068
1073	H	0.647573	0.227289	0.400879
1074	C	0.764324	0.413231	0.336807
1075	C	0.779611	0.406304	0.37316
1076	C	0.778892	0.375309	0.375634
1077	C	0.764044	0.352314	0.339343
1078	N	0.751779	0.362228	0.638162
1079	N	0.751641	0.390047	0.637029
1080	N	0.788918	0.367459	0.414463
1081	H	0.797877	0.383092	0.439408
1082	H	0.78684	0.345875	0.419078
1083	H	0.786599	0.421371	0.400929
1084	C	0.600519	0.35216	0.33691
1085	C	0.607493	0.374443	0.373184
1086	C	0.638535	0.404657	0.375668
1087	C	0.661533	0.412851	0.33937
1088	N	0.651595	0.390588	0.638287
1089	N	0.623772	0.362637	0.637198
1090	N	0.646408	0.422549	0.414484
1091	H	0.630762	0.415932	0.439401
1092	H	0.667982	0.442081	0.419061
1093	H	0.592463	0.366303	0.40098
1094	C	0.855963	0.260384	0.337129
1095	C	0.878229	0.275689	0.373416
1096	C	0.908509	0.274989	0.375874
1097	C	0.916756	0.260265	0.339556
1098	N	0.894444	0.247791	0.638523
1099	N	0.866454	0.247588	0.637454
1100	N	0.926447	0.285086	0.414645
1101	H	0.919764	0.294005	0.439624
1102	H	0.946003	0.283079	0.419193
1103	H	0.870169	0.282692	0.401186
1104	C	0.753556	0.096701	0.336816
1105	C	0.738222	0.10356	0.373184
1106	C	0.738842	0.134501	0.375715
1107	C	0.753492	0.157525	0.339418
1108	N	0.765925	0.14771	0.638307
1109	N	0.766206	0.119967	0.637137
1110	N	0.72878	0.142298	0.414554
1111	H	0.719906	0.126677	0.439519
1112	H	0.730696	0.163822	0.419125
1113	H	0.731271	0.088483	0.400939
1114	C	0.917195	0.157831	0.336865
1115	C	0.910273	0.135625	0.373221
1116	C	0.879306	0.105322	0.375648
1117	C	0.856329	0.097075	0.339306
1118	N	0.866248	0.119314	0.638179
1119	N	0.894025	0.14731	0.637073
1120	N	0.871447	0.087451	0.41448
1121	H	0.887051	0.094156	0.439465
1122	H	0.849889	0.067895	0.419048
1123	H	0.925313	0.143723	0.401017
1124	C	0.595793	0.298484	0.005467
1125	H	0.621263	0.311291	0.003886
1126	C	0.921932	0.211483	0.005612
1127	H	0.896463	0.198666	0.004068
1128	C	0.7499	0.263845	0.682337
1129	C	0.714325	0.24608	0.680689
1130	C	0.696627	0.263426	0.674571
1131	C	0.715361	0.298385	0.67212
1132	C	0.750276	0.31726	0.675983
1133	C	0.76764	0.299437	0.680908
1134	C	0.697558	0.211054	0.680507
1135	C	0.80267	0.316161	0.680433
1136	H	0.702563	0.311055	0.670425
1137	C	0.767727	0.245999	0.682361
1138	C	0.74999	0.210414	0.680905
1139	C	0.767354	0.192584	0.676091
1140	C	0.802281	0.211448	0.672413
1141	C	0.821016	0.246418	0.674773
1142	C	0.8033	0.263763	0.68078
1143	C	0.714957	0.193684	0.680382
1144	H	0.815078	0.198776	0.67086
1145	C	0.820069	0.298792	0.680635
1146	H	0.701442	0.1684	0.677925
1147	H	0.672282	0.197527	0.677999
1148	H	0.845345	0.31232	0.678127
1149	H	0.816177	0.341444	0.677935
1150	C	0.750006	0.487126	0.682327
1151	C	0.767767	0.469313	0.680689
1152	C	0.750416	0.434262	0.674588
1153	C	0.715454	0.418044	0.672137
1154	C	0.69659	0.434098	0.675963
1155	C	0.714419	0.469283	0.680888
1156	C	0.802793	0.487563	0.680531
1157	C	0.697699	0.487595	0.680406
1158	H	0.702784	0.392575	0.670502
1159	C	0.767859	0.0228	0.682321
1160	C	0.803446	0.040642	0.680864
1161	C	0.821274	0.075826	0.675923
1162	C	0.80241	0.09188	0.672083
1163	C	0.767452	0.075666	0.674578
1164	C	0.750102	0.040618	0.680706
1165	C	0.820169	0.022333	0.680402
1166	H	0.815081	0.117348	0.670394
1167	C	0.715074	0.022365	0.680554
1168	H	0.845448	0.034101	0.677857
1169	H	0.816312	0.475806	0.678002
1170	H	0.701553	0.034116	0.677989
1171	H	0.672421	0.475833	0.677864
1172	C	0.661702	0.24952	0.670061
1173	C	0.639487	0.234268	0.706439
1174	C	0.609218	0.234989	0.708957
1175	C	0.601044	0.249805	0.672656
1176	N	0.623196	0.262054	0.971451
1177	N	0.651147	0.262183	0.970315
1178	N	0.591348	0.224975	0.74779
1179	H	0.598031	0.21603	0.772741
1180	H	0.571833	0.227043	0.752401
1181	H	0.647574	0.227289	0.734212
1182	C	0.764323	0.413231	0.670142
1183	C	0.77961	0.406304	0.706493
1184	C	0.778891	0.375309	0.708967
1185	C	0.764043	0.352314	0.672676
1186	N	0.751778	0.362228	0.971495
1187	N	0.751641	0.390047	0.970362
1188	N	0.788917	0.367459	0.747797
1189	H	0.797877	0.383092	0.772741
1190	H	0.786842	0.345875	0.752411
1191	H	0.786598	0.421371	0.734262
1192	C	0.600518	0.35216	0.670243
1193	C	0.607494	0.374443	0.70652
1194	C	0.638535	0.404657	0.709001
1195	C	0.661533	0.412851	0.672703
1196	N	0.651594	0.390588	0.97162
1197	N	0.623772	0.362637	0.970531
1198	N	0.646409	0.422549	0.747817
1199	H	0.630762	0.415932	0.772738
1200	H	0.667982	0.442081	0.752394
1201	H	0.592465	0.366303	0.734316
1202	C	0.855963	0.260384	0.670462
1203	C	0.878228	0.275689	0.706749
1204	C	0.908508	0.274989	0.709207
1205	C	0.916757	0.260265	0.672889
1206	N	0.894445	0.247793	0.971856
1207	N	0.866454	0.247589	0.970787
1208	N	0.926449	0.285086	0.747979
1209	H	0.919764	0.294005	0.772957
1210	H	0.946005	0.283079	0.752526
1211	H	0.870169	0.282692	0.734519
1212	C	0.753555	0.096701	0.670148
1213	C	0.738222	0.10356	0.706517
1214	C	0.738841	0.134501	0.709052
1215	C	0.753492	0.157525	0.672754
1216	N	0.765925	0.14771	0.97164
1217	N	0.766205	0.119967	0.97047
1218	N	0.728779	0.142298	0.747888
1219	H	0.719905	0.126677	0.772852
1220	H	0.730697	0.163822	0.752458
1221	H	0.73127	0.088483	0.734273
1222	C	0.917194	0.157831	0.670199
1223	C	0.910275	0.135625	0.706554
1224	C	0.879308	0.105322	0.708981
1225	C	0.856328	0.097075	0.672639
1226	N	0.866248	0.119314	0.971515
1227	N	0.894022	0.14731	0.970406
1228	N	0.871449	0.087451	0.747813
1229	H	0.887051	0.094156	0.772798
1230	H	0.84989	0.067895	0.752381
1231	H	0.925312	0.143723	0.73435
1232	C	0.526706	0.763907	0.34895
1233	C	0.5445	0.799479	0.347322
1234	C	0.57955	0.817208	0.341234
1235	C	0.595794	0.798487	0.338801
1236	C	0.579755	0.763567	0.342623
1237	C	0.544567	0.746181	0.347508
1238	C	0.526223	0.816228	0.347147
1239	C	0.526285	0.711149	0.347029
1240	H	0.621263	0.811291	0.33722
1241	C	0.991034	0.746064	0.348974
1242	C	0.973165	0.763783	0.347568
1243	C	0.93797	0.746404	0.342758
1244	C	0.921934	0.711482	0.338946
1245	C	0.938186	0.692768	0.341339
1246	C	0.973243	0.710492	0.347353
1247	C	0.991453	0.798817	0.34712
1248	H	0.896462	0.698663	0.337398
1249	C	0.991517	0.693738	0.347157
1250	H	0.979677	0.812323	0.344615
1251	H	0.537963	0.841506	0.34472
1252	H	0.979768	0.668457	0.344713
1253	H	0.538072	0.697653	0.344551
1254	C	0.715362	0.798385	0.005453
1255	H	0.702562	0.811055	0.003758
1256	H	0.815079	0.698777	0.004193
1257	C	0.715452	0.918044	0.00547
1258	H	0.702782	0.892575	0.003835
1259	C	0.80241	0.59188	0.005416
1260	H	0.815082	0.617349	0.003727
1261	C	0.6617	0.74952	0.003394
1262	N	0.623198	0.762054	0.304784
1263	N	0.651147	0.762183	0.303648
1264	C	0.764325	0.913234	0.003475
1265	N	0.751779	0.862228	0.304827
1266	N	0.751641	0.890047	0.303697
1267	C	0.600519	0.85216	0.003579
1268	N	0.651596	0.890588	0.304952
1269	N	0.623773	0.86264	0.303863
1270	C	0.855963	0.760384	0.003798
1271	N	0.894444	0.747791	0.305189
1272	N	0.866454	0.747588	0.304121
1273	C	0.753555	0.5967	0.003485
1274	N	0.765925	0.647712	0.304972
1275	N	0.766206	0.619967	0.303804
1276	C	0.917194	0.657834	0.003532
1277	N	0.866248	0.619315	0.304847
1278	N	0.894024	0.64731	0.303738
1279	C	0.526706	0.763907	0.682283
1280	C	0.5445	0.799479	0.680655
1281	C	0.57955	0.817208	0.674567
1282	C	0.595794	0.798487	0.672134
1283	C	0.579755	0.763567	0.675956
1284	C	0.544567	0.746181	0.680844
1285	C	0.526223	0.816228	0.68048
1286	C	0.526285	0.711149	0.680362
1287	H	0.621264	0.811291	0.670553
1288	C	0.991033	0.746064	0.682307
1289	C	0.973166	0.763783	0.680901
1290	C	0.93797	0.746404	0.676091
1291	C	0.921933	0.711482	0.672279
1292	C	0.938187	0.692768	0.674672
1293	C	0.973245	0.710492	0.680686
1294	C	0.991452	0.798817	0.680453
1295	H	0.896462	0.698663	0.670735
1296	C	0.991517	0.693738	0.68049
1297	H	0.979676	0.812323	0.677952
1298	H	0.537963	0.841506	0.678053
1299	H	0.97977	0.668457	0.67805
1300	H	0.538072	0.697653	0.677884
1301	C	0.749899	0.763845	0.349001
1302	C	0.714328	0.746081	0.347356
1303	C	0.696626	0.763426	0.341238
1304	C	0.715361	0.798385	0.338787
1305	C	0.750278	0.81726	0.342647
1306	C	0.767639	0.799437	0.347575
1307	C	0.69756	0.711055	0.347174
1308	C	0.802669	0.816161	0.3471
1309	H	0.702563	0.811055	0.337092
1310	C	0.767728	0.745999	0.349028
1311	C	0.74999	0.710415	0.347572
1312	C	0.767354	0.692584	0.342758
1313	C	0.802281	0.71145	0.33908
1314	C	0.821016	0.746419	0.34144
1315	C	0.8033	0.763763	0.347447
1316	C	0.714959	0.693686	0.347049
1317	H	0.81508	0.698777	0.337526
1318	C	0.820071	0.798792	0.347302
1319	H	0.701444	0.6684	0.344592
1320	H	0.672282	0.697526	0.344666
1321	H	0.845347	0.81232	0.344794
1322	H	0.816179	0.841444	0.344602
1323	C	0.750008	0.987126	0.348994
1324	C	0.76777	0.969316	0.347356
1325	C	0.750418	0.934262	0.341255
1326	C	0.715454	0.918044	0.338804
1327	C	0.696591	0.934098	0.34263
1328	C	0.714421	0.969286	0.347555
1329	C	0.802796	0.987565	0.347198
1330	C	0.6977	0.987595	0.347073
1331	H	0.702783	0.892575	0.337169
1332	C	0.767858	0.5228	0.348987
1333	C	0.803446	0.540643	0.347531
1334	C	0.821273	0.575826	0.34259
1335	C	0.802411	0.59188	0.33875
1336	C	0.767452	0.575667	0.341245
1337	C	0.750102	0.540618	0.347373
1338	C	0.820169	0.522334	0.347069
1339	H	0.815084	0.617349	0.337061
1340	C	0.715077	0.522366	0.347218
1341	H	0.845449	0.534101	0.344524
1342	H	0.816312	0.975806	0.344666
1343	H	0.701554	0.534116	0.344656
1344	H	0.67242	0.975833	0.344531
1345	C	0.661701	0.74952	0.336726
1346	C	0.63949	0.734269	0.373106
1347	C	0.609217	0.734989	0.375624
1348	C	0.601044	0.749805	0.339323
1349	N	0.623197	0.762054	0.638118
1350	N	0.651146	0.762183	0.636982
1351	N	0.591349	0.724975	0.414457
1352	H	0.598033	0.716031	0.439408
1353	H	0.571835	0.727044	0.419068
1354	H	0.647575	0.72729	0.400879
1355	C	0.764326	0.913234	0.336807
1356	C	0.779612	0.906304	0.37316
1357	C	0.778893	0.875309	0.375634
1358	C	0.764045	0.852314	0.339343
1359	N	0.751778	0.862228	0.638162
1360	N	0.751642	0.890047	0.637029
1361	N	0.788917	0.867459	0.414463
1362	H	0.797878	0.883092	0.439408
1363	H	0.786841	0.845875	0.419078
1364	H	0.786598	0.921371	0.400929
1365	C	0.600519	0.85216	0.33691
1366	C	0.607494	0.874443	0.373184
1367	C	0.638535	0.904657	0.375668
1368	C	0.661533	0.912851	0.33937
1369	N	0.651596	0.890588	0.638287
1370	N	0.623773	0.86264	0.637198
1371	N	0.646409	0.922549	0.414484
1372	H	0.630762	0.915932	0.439401
1373	H	0.667982	0.942082	0.419061
1374	H	0.592464	0.866303	0.40098
1375	C	0.855965	0.760384	0.337129
1376	C	0.878228	0.775689	0.373416
1377	C	0.908508	0.774989	0.375874
1378	C	0.916757	0.760265	0.339556
1379	N	0.894443	0.747791	0.638523
1380	N	0.866453	0.747588	0.637454
1381	N	0.926448	0.785086	0.414645
1382	H	0.919763	0.794005	0.439624
1383	H	0.946004	0.783079	0.419193
1384	H	0.870168	0.782692	0.401186
1385	C	0.753557	0.5967	0.336816
1386	C	0.738221	0.60356	0.373184
1387	C	0.73884	0.6345	0.375715
1388	C	0.753492	0.657526	0.339418
1389	N	0.765925	0.647712	0.638307
1390	N	0.766207	0.619967	0.637137
1391	N	0.728781	0.6423	0.414554
1392	H	0.719907	0.626677	0.439519
1393	H	0.730697	0.663822	0.419125
1394	H	0.73127	0.588483	0.400939
1395	C	0.917194	0.657831	0.336865
1396	C	0.910275	0.635626	0.373221
1397	C	0.879307	0.605321	0.375648
1398	C	0.85633	0.597075	0.339306
1399	N	0.866247	0.619315	0.638179
1400	N	0.894024	0.64731	0.637073
1401	N	0.871448	0.587451	0.41448
1402	H	0.887051	0.594157	0.439465
1403	H	0.84989	0.567896	0.419048
1404	H	0.925314	0.643724	0.401017
1405	C	0.595793	0.798484	0.005467
1406	H	0.621264	0.811291	0.003886
1407	C	0.921934	0.711484	0.005612
1408	H	0.896464	0.698665	0.004068
1409	C	0.749901	0.763845	0.682337
1410	C	0.714327	0.746081	0.680689
1411	C	0.696626	0.763426	0.674571
1412	C	0.715362	0.798385	0.67212
1413	C	0.750278	0.81726	0.675983
1414	C	0.767639	0.799437	0.680908
1415	C	0.69756	0.711055	0.680507
1416	C	0.802669	0.816161	0.680433
1417	H	0.702562	0.811055	0.670425
1418	C	0.767728	0.745999	0.682361
1419	C	0.749991	0.710415	0.680905
1420	C	0.767353	0.692584	0.676091
1421	C	0.802283	0.71145	0.672413
1422	C	0.821016	0.746419	0.674773
1423	C	0.803301	0.763763	0.68078
1424	C	0.714959	0.693686	0.680382
1425	H	0.815079	0.698777	0.67086
1426	C	0.82007	0.798792	0.680635
1427	H	0.701443	0.6684	0.677925
1428	H	0.672283	0.697527	0.677999
1429	H	0.845346	0.81232	0.678127
1430	H	0.816179	0.841444	0.677935
1431	C	0.750007	0.987126	0.682327
1432	C	0.76777	0.969316	0.680689
1433	C	0.750417	0.934262	0.674588
1434	C	0.715453	0.918044	0.672137
1435	C	0.696591	0.934098	0.675963
1436	C	0.714421	0.969286	0.680888
1437	C	0.802796	0.987565	0.680531
1438	C	0.6977	0.987595	0.680406
1439	H	0.702783	0.892575	0.670502
1440	C	0.767858	0.5228	0.682321
1441	C	0.803447	0.540643	0.680864
1442	C	0.821273	0.575826	0.675923
1443	C	0.802411	0.59188	0.672083
1444	C	0.767451	0.575667	0.674578
1445	C	0.750101	0.540618	0.680706
1446	C	0.82017	0.522334	0.680402
1447	H	0.815083	0.617349	0.670394
1448	C	0.715076	0.522366	0.680554
1449	H	0.845449	0.534101	0.677857
1450	H	0.816311	0.975806	0.678002
1451	H	0.701554	0.534116	0.677989
1452	H	0.67242	0.975833	0.677864
1453	C	0.661701	0.74952	0.670061
1454	C	0.639489	0.734269	0.706439
1455	C	0.609219	0.734989	0.708957
1456	C	0.601043	0.749805	0.672656
1457	N	0.623197	0.762054	0.971451
1458	N	0.651146	0.762183	0.970315
1459	N	0.591349	0.724975	0.74779
1460	H	0.598033	0.716031	0.772741
1461	H	0.571835	0.727044	0.752401
1462	H	0.647574	0.72729	0.734212
1463	C	0.764325	0.913234	0.670142
1464	C	0.779612	0.906304	0.706493
1465	C	0.778892	0.875309	0.708967
1466	C	0.764044	0.852314	0.672676
1467	N	0.75178	0.862228	0.971495
1468	N	0.751642	0.890047	0.970362
1469	N	0.788916	0.867459	0.747797
1470	H	0.797878	0.883092	0.772741
1471	H	0.786841	0.845875	0.752411
1472	H	0.7866	0.921371	0.734262
1473	C	0.600519	0.85216	0.670243
1474	C	0.607493	0.874443	0.70652
1475	C	0.638535	0.904657	0.709001
1476	C	0.661533	0.912851	0.672703
1477	N	0.651595	0.890588	0.97162
1478	N	0.623773	0.86264	0.970531
1479	N	0.646409	0.922549	0.747817
1480	H	0.630762	0.915932	0.772738
1481	H	0.667982	0.942082	0.752394
1482	H	0.592464	0.866303	0.734316
1483	C	0.855964	0.760384	0.670462
1484	C	0.878229	0.775689	0.706749
1485	C	0.908509	0.774989	0.709207
1486	C	0.916756	0.760265	0.672889
1487	N	0.894444	0.747794	0.971856
1488	N	0.866454	0.74759	0.970787
1489	N	0.926448	0.785086	0.747979
1490	H	0.919765	0.794005	0.772957
1491	H	0.946004	0.783079	0.752526
1492	H	0.870168	0.782692	0.734519
1493	C	0.753556	0.5967	0.670148
1494	C	0.738223	0.60356	0.706517
1495	C	0.738842	0.6345	0.709052
1496	C	0.753494	0.657526	0.672754
1497	N	0.765924	0.647712	0.97164
1498	N	0.766207	0.619967	0.97047
1499	N	0.728781	0.6423	0.747888
1500	H	0.719906	0.626677	0.772852
1501	H	0.730696	0.663822	0.752458
1502	H	0.731271	0.588483	0.734273
1503	C	0.917195	0.657831	0.670199
1504	C	0.910274	0.635626	0.706554
1505	C	0.879306	0.605321	0.708981
1506	C	0.856329	0.597075	0.672639
1507	N	0.866247	0.619315	0.971515
1508	N	0.894023	0.64731	0.970406
1509	N	0.871448	0.587451	0.747813
1510	H	0.887052	0.594157	0.772798
1511	H	0.84989	0.567896	0.752381
1512	H	0.925313	0.643724	0.73435
