data_C576H432N216_2018-02-15_10:34:05
#******************************************
#
# CIF file created by Zeo++
# Zeo++ is an open source package to
# analyze microporous materials
#
#*******************************************

_cell_length_a		57.734   
_cell_length_b		57.734   
_cell_length_c		30.0256   
_cell_angle_alpha		90   
_cell_angle_beta		90   
_cell_angle_gamma		120   

_symmetry_space_group_name_H-M		'P1'
_symmetry_Int_Tables_number		1
_symmetry_cell_setting		Monoclinic

loop_
_symmetry_equiv_pos_as_xyz
'+x,+y,+z'

loop_
_atom_site_label
_atom_site_type_symbol
_atom_site_fract_x
_atom_site_fract_y
_atom_site_fract_z
1	C	0.178541	0.317164	0.936065
2	C	0.150366	0.304859	0.935855
3	C	0.137769	0.32039	0.936065
4	C	0.153641	0.348566	0.935845
5	C	0.181769	0.361162	0.936058
6	C	0.194072	0.34529	0.935831
7	H	0.144619	0.359958	0.936011
8	H	0.214487	0.354312	0.936021
9	H	0.138974	0.284445	0.936031
10	N	0.191923	0.302301	0.936881
11	H	0.185554	0.289277	0.910403
12	N	0.196631	0.389407	0.936864
13	H	0.209647	0.396059	0.910376
14	N	0.109526	0.307009	0.936871
15	H	0.102874	0.313372	0.91038
16	C	0.321596	0.183246	0.062717
17	C	0.349611	0.19414	0.062875
18	C	0.360798	0.177334	0.062717
19	C	0.343678	0.149319	0.062874
20	C	0.315685	0.138133	0.062717
21	C	0.304791	0.155253	0.062876
22	H	0.351686	0.137017	0.063034
23	H	0.284479	0.147245	0.063037
24	H	0.361915	0.214452	0.063034
25	N	0.309602	0.199395	0.062829
26	H	0.316575	0.212134	0.089668
27	N	0.299535	0.109989	0.062826
28	H	0.286798	0.104223	0.089667
29	N	0.388942	0.189329	0.062825
30	H	0.394708	0.182359	0.089668
31	C	0.207889	0.277123	0.984197
32	C	0.228116	0.281735	0.286243
33	N	0.244768	0.271855	0.293131
34	C	0.243225	0.257283	0.996313
35	C	0.223495	0.252078	0.028974
36	C	0.20599	0.262115	0.022677
37	H	0.191758	0.258401	0.046309
38	C	0.260611	0.24708	0.336203
39	C	0.29465	0.225874	0.350278
40	C	0.274633	0.22144	0.048572
41	H	0.230768	0.292653	0.258043
42	N	0.279934	0.251068	0.306352
43	C	0.257599	0.231988	0.041834
44	N	0.238161	0.227954	0.071505
45	N	0.222031	0.237476	0.06544
46	H	0.272064	0.21029	0.076504
47	C	0.296661	0.241168	0.312132
48	H	0.310625	0.244848	0.288089
49	C	0.312863	0.214686	0.354524
50	H	0.333549	0.231126	0.352236
51	H	0.309012	0.20149	0.325908
52	C	0.189183	0.287663	0.979101
53	H	0.192773	0.301131	0.007208
54	H	0.168678	0.270907	0.981786
55	C	0.221818	0.430552	0.984174
56	C	0.2172	0.446166	0.286227
57	N	0.227079	0.472698	0.293117
58	C	0.241658	0.485729	0.996293
59	C	0.246869	0.471204	0.028946
60	C	0.236835	0.443664	0.022647
61	H	0.240553	0.433146	0.046274
62	C	0.251859	0.013316	0.336186
63	C	0.27306	0.06856	0.350271
64	C	0.277501	0.052979	0.048555
65	H	0.206277	0.4379	0.258032
66	N	0.247861	0.02865	0.306344
67	C	0.266956	0.025397	0.041813
68	N	0.270996	0.009993	0.071476
69	N	0.261476	0.484343	0.065408
70	H	0.288656	0.061559	0.076484
71	C	0.25776	0.055275	0.312129
72	H	0.254074	0.065559	0.288092
73	C	0.284244	0.09796	0.354521
74	H	0.267803	0.102204	0.352239
75	H	0.297438	0.107308	0.325904
76	C	0.21128	0.401307	0.979078
77	H	0.197818	0.391429	0.007192
78	H	0.228036	0.397559	0.981746
79	C	0.068378	0.291053	0.984174
80	C	0.052765	0.270817	0.286232
81	N	0.026233	0.254162	0.293122
82	C	0.013201	0.255715	0.996293
83	C	0.027724	0.275455	0.028941
84	C	0.055265	0.292963	0.022642
85	H	0.06578	0.307201	0.046265
86	C	0.485614	0.238326	0.336186
87	C	0.43037	0.204282	0.350271
88	C	0.44595	0.22431	0.04855
89	H	0.061033	0.268157	0.258042
90	N	0.470282	0.218992	0.306349
91	C	0.473532	0.241348	0.041807
92	N	0.488933	0.260795	0.071465
93	N	0.014584	0.276927	0.065397
94	H	0.437367	0.226884	0.076475
95	C	0.443656	0.202264	0.312134
96	H	0.433373	0.188291	0.288101
97	C	0.40097	0.186065	0.354524
98	H	0.396729	0.16538	0.352246
99	H	0.391621	0.189908	0.325903
100	C	0.097622	0.309759	0.979078
101	H	0.1075	0.306179	0.007197
102	H	0.10137	0.330266	0.981739
103	C	0.178541	0.317164	0.269399
104	C	0.150366	0.304859	0.269188
105	C	0.137769	0.32039	0.269398
106	C	0.153641	0.348566	0.269177
107	C	0.181769	0.361162	0.26939
108	C	0.194072	0.34529	0.269166
109	H	0.144619	0.359958	0.269345
110	H	0.214487	0.354312	0.269353
111	H	0.138974	0.284445	0.269364
112	N	0.191923	0.302301	0.270213
113	H	0.185554	0.289277	0.243735
114	N	0.196631	0.389407	0.270198
115	H	0.209647	0.396059	0.243711
116	N	0.109526	0.307009	0.270204
117	H	0.102874	0.313372	0.243713
118	C	0.321596	0.183246	0.396052
119	C	0.349611	0.19414	0.396209
120	C	0.360798	0.177334	0.396052
121	C	0.343678	0.149319	0.396209
122	C	0.315685	0.138133	0.396052
123	C	0.304791	0.155253	0.396209
124	H	0.351686	0.137017	0.396368
125	H	0.284479	0.147245	0.396368
126	H	0.361915	0.214452	0.396368
127	N	0.309602	0.199395	0.396162
128	H	0.316575	0.212134	0.423002
129	N	0.299535	0.109989	0.396159
130	H	0.286798	0.104223	0.422999
131	N	0.388942	0.189329	0.396159
132	H	0.394708	0.182359	0.423002
133	C	0.207889	0.277123	0.31753
134	C	0.228116	0.281735	0.619578
135	N	0.244768	0.271855	0.626465
136	C	0.243225	0.257283	0.329646
137	C	0.223495	0.252078	0.362307
138	C	0.20599	0.262115	0.35601
139	H	0.191758	0.258401	0.379643
140	C	0.260611	0.24708	0.669535
141	C	0.29465	0.225874	0.68361
142	C	0.274633	0.22144	0.381904
143	H	0.230768	0.292653	0.591375
144	N	0.279934	0.251068	0.639684
145	C	0.257599	0.231988	0.375167
146	N	0.238161	0.227954	0.404838
147	N	0.222031	0.237476	0.398773
148	H	0.272064	0.21029	0.409837
149	C	0.296661	0.241168	0.645466
150	H	0.310625	0.244848	0.621423
151	C	0.312863	0.214686	0.687856
152	H	0.333549	0.231126	0.685568
153	H	0.309012	0.20149	0.659241
154	C	0.189183	0.287663	0.312434
155	H	0.192773	0.301131	0.340539
156	H	0.168678	0.270907	0.315118
157	C	0.221818	0.430552	0.317506
158	C	0.2172	0.446166	0.619561
159	N	0.227079	0.472698	0.626449
160	C	0.241658	0.485729	0.329627
161	C	0.246869	0.471204	0.362281
162	C	0.236835	0.443664	0.35598
163	H	0.240553	0.433146	0.379606
164	C	0.251859	0.013316	0.669522
165	C	0.27306	0.06856	0.683603
166	C	0.277501	0.052979	0.381887
167	H	0.206277	0.4379	0.591365
168	N	0.247861	0.02865	0.639677
169	C	0.266956	0.025397	0.375147
170	N	0.270996	0.009993	0.404808
171	N	0.261476	0.484343	0.39874
172	H	0.288656	0.061559	0.409817
173	C	0.25776	0.055275	0.645463
174	H	0.254074	0.065559	0.621426
175	C	0.284244	0.09796	0.687856
176	H	0.267803	0.102204	0.685575
177	H	0.297438	0.107308	0.659237
178	C	0.21128	0.401307	0.31241
179	H	0.197818	0.391429	0.340526
180	H	0.228036	0.397559	0.315078
181	C	0.068378	0.291053	0.317506
182	C	0.052765	0.270817	0.619565
183	N	0.026233	0.254162	0.626455
184	C	0.013201	0.255715	0.329626
185	C	0.027724	0.275455	0.362274
186	C	0.055265	0.292963	0.355976
187	H	0.06578	0.307201	0.379599
188	C	0.485614	0.238326	0.669519
189	C	0.43037	0.204282	0.683603
190	C	0.44595	0.22431	0.381884
191	H	0.061033	0.268157	0.591375
192	N	0.470282	0.218992	0.639681
193	C	0.473532	0.241348	0.37514
194	N	0.488933	0.260795	0.404798
195	N	0.014584	0.276927	0.39873
196	H	0.437367	0.226884	0.409807
197	C	0.443656	0.202264	0.645466
198	H	0.433373	0.188291	0.621433
199	C	0.40097	0.186065	0.687856
200	H	0.396729	0.16538	0.685578
201	H	0.391621	0.189908	0.659237
202	C	0.097622	0.309759	0.312411
203	H	0.1075	0.306179	0.340529
204	H	0.10137	0.330266	0.315073
205	C	0.178541	0.317164	0.602732
206	C	0.150366	0.304859	0.602523
207	C	0.137769	0.32039	0.602732
208	C	0.153641	0.348566	0.602509
209	C	0.181769	0.361162	0.602722
210	C	0.194072	0.34529	0.602499
211	H	0.144619	0.359958	0.602679
212	H	0.214487	0.354312	0.602686
213	H	0.138974	0.284445	0.602699
214	N	0.191923	0.302301	0.603548
215	H	0.185554	0.289277	0.577068
216	N	0.196631	0.389407	0.603532
217	H	0.209647	0.396059	0.577044
218	N	0.109526	0.307009	0.603538
219	H	0.102874	0.313372	0.577048
220	C	0.321596	0.183246	0.729384
221	C	0.349611	0.19414	0.729541
222	C	0.360798	0.177334	0.729384
223	C	0.343678	0.149319	0.729541
224	C	0.315685	0.138133	0.729384
225	C	0.304791	0.155253	0.729541
226	H	0.351686	0.137017	0.729701
227	H	0.284479	0.147245	0.729704
228	H	0.361915	0.214452	0.729701
229	N	0.309602	0.199395	0.729494
230	H	0.316575	0.212134	0.756335
231	N	0.299535	0.109989	0.729494
232	H	0.286798	0.104223	0.756335
233	N	0.388942	0.189329	0.729491
234	H	0.394708	0.182359	0.756335
235	C	0.207889	0.277123	0.650865
236	C	0.228116	0.281735	0.95291
237	N	0.244768	0.271855	0.959798
238	C	0.243225	0.257283	0.662978
239	C	0.223495	0.252078	0.69564
240	C	0.20599	0.262115	0.689345
241	H	0.191758	0.258401	0.712975
242	C	0.260611	0.24708	0.002869
243	C	0.29465	0.225874	0.016944
244	C	0.274633	0.22144	0.71524
245	H	0.230768	0.292653	0.924711
246	N	0.279934	0.251068	0.97302
247	C	0.257599	0.231988	0.708502
248	N	0.238161	0.227954	0.73817
249	N	0.222031	0.237476	0.732105
250	H	0.272064	0.21029	0.743172
251	C	0.296661	0.241168	0.978798
252	H	0.310625	0.244848	0.954755
253	C	0.312863	0.214686	0.021191
254	H	0.333549	0.231126	0.018903
255	H	0.309012	0.20149	0.992573
256	C	0.189183	0.287663	0.645769
257	H	0.192773	0.301131	0.673875
258	H	0.168678	0.270907	0.64845
259	C	0.221818	0.430552	0.650838
260	C	0.2172	0.446166	0.952894
261	N	0.227079	0.472698	0.959784
262	C	0.241658	0.485729	0.662961
263	C	0.246869	0.471204	0.695613
264	C	0.236835	0.443664	0.689315
265	H	0.240553	0.433146	0.712942
266	C	0.251859	0.013316	0.002854
267	C	0.27306	0.06856	0.016937
268	C	0.277501	0.052979	0.715223
269	H	0.206277	0.4379	0.924698
270	N	0.247861	0.02865	0.97301
271	C	0.266956	0.025397	0.708479
272	N	0.270996	0.009993	0.738143
273	N	0.261476	0.484343	0.732075
274	H	0.288656	0.061559	0.743153
275	C	0.25776	0.055275	0.978795
276	H	0.254074	0.065559	0.954759
277	C	0.284244	0.09796	0.021188
278	H	0.267803	0.102204	0.018907
279	H	0.297438	0.107308	0.99257
280	C	0.21128	0.401307	0.645742
281	H	0.197818	0.391429	0.673858
282	H	0.228036	0.397559	0.648413
283	C	0.068378	0.291053	0.650838
284	C	0.052765	0.270817	0.9529
285	N	0.026233	0.254162	0.959788
286	C	0.013201	0.255715	0.662961
287	C	0.027724	0.275455	0.695606
288	C	0.055265	0.292963	0.689308
289	H	0.06578	0.307201	0.712932
290	C	0.485614	0.238326	0.002853
291	C	0.43037	0.204282	0.016937
292	C	0.44595	0.22431	0.715216
293	H	0.061033	0.268157	0.924708
294	N	0.470282	0.218992	0.973016
295	C	0.473532	0.241348	0.708475
296	N	0.488933	0.260795	0.738133
297	N	0.014584	0.276927	0.732062
298	H	0.437367	0.226884	0.743143
299	C	0.443656	0.202264	0.978801
300	H	0.433373	0.188291	0.954769
301	C	0.40097	0.186065	0.021189
302	H	0.396729	0.16538	0.018912
303	H	0.391621	0.189908	0.99257
304	C	0.097622	0.309759	0.645746
305	H	0.1075	0.306179	0.673865
306	H	0.10137	0.330266	0.648407
307	C	0.17854	0.817162	0.936065
308	C	0.150365	0.80486	0.935855
309	C	0.13777	0.820391	0.936065
310	C	0.153641	0.848565	0.935845
311	C	0.181767	0.861161	0.936058
312	C	0.194071	0.845291	0.935831
313	H	0.144619	0.859959	0.936011
314	H	0.214486	0.854313	0.936021
315	H	0.138973	0.784444	0.936031
316	N	0.191923	0.802302	0.936881
317	H	0.185554	0.789278	0.910403
318	N	0.196631	0.889406	0.936864
319	H	0.209647	0.89606	0.910376
320	N	0.109525	0.807008	0.936871
321	H	0.102873	0.81337	0.91038
322	C	0.321597	0.683246	0.062717
323	C	0.349611	0.69414	0.062875
324	C	0.360798	0.677334	0.062717
325	C	0.343677	0.649319	0.062874
326	C	0.315685	0.638133	0.062717
327	C	0.304791	0.655254	0.062876
328	H	0.351686	0.637017	0.063034
329	H	0.28448	0.647245	0.063037
330	H	0.361913	0.714451	0.063034
331	N	0.309602	0.699394	0.062829
332	H	0.316575	0.712133	0.089668
333	N	0.299536	0.609989	0.062826
334	H	0.286798	0.604223	0.089667
335	N	0.388941	0.689328	0.062825
336	H	0.394708	0.68236	0.089668
337	C	0.207888	0.777124	0.984197
338	C	0.228115	0.781734	0.286243
339	N	0.244768	0.771856	0.293131
340	C	0.243224	0.757281	0.996313
341	C	0.223496	0.752079	0.028974
342	C	0.20599	0.762113	0.022677
343	H	0.191758	0.758401	0.046309
344	C	0.26061	0.747079	0.336203
345	C	0.294651	0.725875	0.350278
346	C	0.274634	0.721441	0.048572
347	H	0.230767	0.792652	0.258043
348	N	0.279934	0.751069	0.306352
349	C	0.257598	0.731987	0.041834
350	N	0.238161	0.727955	0.071505
351	N	0.222031	0.737477	0.06544
352	H	0.272064	0.710291	0.076504
353	C	0.29666	0.741169	0.312132
354	H	0.310625	0.744849	0.288089
355	C	0.312862	0.714685	0.354524
356	H	0.333548	0.731125	0.352236
357	H	0.309012	0.70149	0.325908
358	C	0.189182	0.787662	0.979101
359	H	0.192773	0.801132	0.007208
360	H	0.168679	0.770908	0.981786
361	C	0.221818	0.930552	0.984174
362	C	0.217199	0.946167	0.286227
363	N	0.227079	0.972697	0.293117
364	C	0.241657	0.985729	0.996293
365	C	0.246867	0.971203	0.028946
366	C	0.236836	0.943665	0.022647
367	H	0.240554	0.933147	0.046274
368	C	0.251858	0.513317	0.336186
369	C	0.273059	0.56856	0.350271
370	C	0.277502	0.55298	0.048555
371	H	0.206277	0.937901	0.258032
372	N	0.247861	0.528649	0.306344
373	C	0.266956	0.525397	0.041813
374	N	0.270996	0.509993	0.071476
375	N	0.261475	0.984341	0.065408
376	H	0.288655	0.56156	0.076484
377	C	0.25776	0.555276	0.312129
378	H	0.254074	0.56556	0.288092
379	C	0.284244	0.597961	0.354521
380	H	0.267803	0.602205	0.352239
381	H	0.297438	0.607309	0.325904
382	C	0.21128	0.901308	0.979078
383	H	0.197818	0.89143	0.007192
384	H	0.228037	0.89756	0.981746
385	C	0.068378	0.791054	0.984174
386	C	0.052766	0.770818	0.286232
387	N	0.026233	0.754163	0.293122
388	C	0.013201	0.755715	0.996293
389	C	0.027725	0.775456	0.028941
390	C	0.055264	0.792962	0.022642
391	H	0.06578	0.8072	0.046265
392	C	0.485614	0.738327	0.336186
393	C	0.43037	0.70428	0.350271
394	C	0.44595	0.724309	0.04855
395	H	0.061033	0.768158	0.258042
396	N	0.470282	0.718993	0.306349
397	C	0.473531	0.741347	0.041807
398	N	0.488933	0.760795	0.071465
399	N	0.014585	0.776928	0.065397
400	H	0.437368	0.726885	0.076475
401	C	0.443657	0.702264	0.312134
402	H	0.433374	0.68829	0.288101
403	C	0.40097	0.686064	0.354524
404	H	0.396729	0.66538	0.352246
405	H	0.391622	0.689908	0.325903
406	C	0.097623	0.80976	0.979078
407	H	0.1075	0.80618	0.007197
408	H	0.101369	0.830265	0.981739
409	C	0.17854	0.817162	0.269399
410	C	0.150365	0.80486	0.269188
411	C	0.13777	0.820391	0.269398
412	C	0.153641	0.848565	0.269177
413	C	0.181767	0.861161	0.26939
414	C	0.194071	0.845291	0.269166
415	H	0.144619	0.859959	0.269345
416	H	0.214486	0.854313	0.269353
417	H	0.138973	0.784444	0.269364
418	N	0.191923	0.802302	0.270213
419	H	0.185554	0.789278	0.243735
420	N	0.196631	0.889406	0.270198
421	H	0.209647	0.89606	0.243711
422	N	0.109525	0.807008	0.270204
423	H	0.102873	0.81337	0.243713
424	C	0.321597	0.683246	0.396052
425	C	0.349611	0.69414	0.396209
426	C	0.360798	0.677334	0.396052
427	C	0.343677	0.649319	0.396209
428	C	0.315685	0.638133	0.396052
429	C	0.304791	0.655254	0.396209
430	H	0.351686	0.637017	0.396368
431	H	0.28448	0.647245	0.396368
432	H	0.361913	0.714451	0.396368
433	N	0.309602	0.699394	0.396162
434	H	0.316575	0.712133	0.423002
435	N	0.299536	0.609989	0.396159
436	H	0.286798	0.604223	0.422999
437	N	0.388941	0.689328	0.396159
438	H	0.394708	0.68236	0.423002
439	C	0.207888	0.777124	0.31753
440	C	0.228115	0.781734	0.619578
441	N	0.244768	0.771856	0.626465
442	C	0.243224	0.757281	0.329646
443	C	0.223496	0.752079	0.362307
444	C	0.20599	0.762113	0.35601
445	H	0.191758	0.758401	0.379643
446	C	0.26061	0.747079	0.669535
447	C	0.294651	0.725875	0.68361
448	C	0.274634	0.721441	0.381904
449	H	0.230767	0.792652	0.591375
450	N	0.279934	0.751069	0.639684
451	C	0.257598	0.731987	0.375167
452	N	0.238161	0.727955	0.404838
453	N	0.222031	0.737477	0.398773
454	H	0.272064	0.710291	0.409837
455	C	0.29666	0.741169	0.645466
456	H	0.310625	0.744849	0.621423
457	C	0.312862	0.714685	0.687856
458	H	0.333548	0.731125	0.685568
459	H	0.309012	0.70149	0.659241
460	C	0.189182	0.787662	0.312434
461	H	0.192773	0.801132	0.340539
462	H	0.168679	0.770908	0.315118
463	C	0.221818	0.930552	0.317506
464	C	0.217199	0.946167	0.619561
465	N	0.227079	0.972697	0.626449
466	C	0.241657	0.985729	0.329627
467	C	0.246867	0.971203	0.362281
468	C	0.236836	0.943665	0.35598
469	H	0.240554	0.933147	0.379606
470	C	0.251858	0.513317	0.669522
471	C	0.273059	0.56856	0.683603
472	C	0.277502	0.55298	0.381887
473	H	0.206277	0.937901	0.591365
474	N	0.247861	0.528649	0.639677
475	C	0.266956	0.525397	0.375147
476	N	0.270996	0.509993	0.404808
477	N	0.261475	0.984341	0.39874
478	H	0.288655	0.56156	0.409817
479	C	0.25776	0.555276	0.645463
480	H	0.254074	0.56556	0.621426
481	C	0.284244	0.597961	0.687856
482	H	0.267803	0.602205	0.685575
483	H	0.297438	0.607309	0.659237
484	C	0.21128	0.901308	0.31241
485	H	0.197818	0.89143	0.340526
486	H	0.228037	0.89756	0.315078
487	C	0.068378	0.791054	0.317506
488	C	0.052766	0.770818	0.619565
489	N	0.026233	0.754163	0.626455
490	C	0.013201	0.755715	0.329626
491	C	0.027725	0.775456	0.362274
492	C	0.055264	0.792962	0.355976
493	H	0.06578	0.8072	0.379599
494	C	0.485614	0.738327	0.669519
495	C	0.43037	0.70428	0.683603
496	C	0.44595	0.724309	0.381884
497	H	0.061033	0.768158	0.591375
498	N	0.470282	0.718993	0.639681
499	C	0.473531	0.741347	0.37514
500	N	0.488933	0.760795	0.404798
501	N	0.014585	0.776928	0.39873
502	H	0.437368	0.726885	0.409807
503	C	0.443657	0.702264	0.645466
504	H	0.433374	0.68829	0.621433
505	C	0.40097	0.686064	0.687856
506	H	0.396729	0.66538	0.685578
507	H	0.391622	0.689908	0.659237
508	C	0.097623	0.80976	0.312411
509	H	0.1075	0.80618	0.340529
510	H	0.101369	0.830265	0.315073
511	C	0.17854	0.817162	0.602732
512	C	0.150365	0.80486	0.602523
513	C	0.13777	0.820391	0.602732
514	C	0.153641	0.848565	0.602509
515	C	0.181767	0.861161	0.602722
516	C	0.194071	0.845291	0.602499
517	H	0.144619	0.859959	0.602679
518	H	0.214486	0.854313	0.602686
519	H	0.138973	0.784444	0.602699
520	N	0.191923	0.802302	0.603548
521	H	0.185554	0.789278	0.577068
522	N	0.196631	0.889406	0.603532
523	H	0.209647	0.89606	0.577044
524	N	0.109525	0.807008	0.603538
525	H	0.102873	0.81337	0.577048
526	C	0.321597	0.683246	0.729384
527	C	0.349611	0.69414	0.729541
528	C	0.360798	0.677334	0.729384
529	C	0.343677	0.649319	0.729541
530	C	0.315685	0.638133	0.729384
531	C	0.304791	0.655254	0.729541
532	H	0.351686	0.637017	0.729701
533	H	0.28448	0.647245	0.729704
534	H	0.361913	0.714451	0.729701
535	N	0.309602	0.699394	0.729494
536	H	0.316575	0.712133	0.756335
537	N	0.299536	0.609989	0.729494
538	H	0.286798	0.604223	0.756335
539	N	0.388941	0.689328	0.729491
540	H	0.394708	0.68236	0.756335
541	C	0.207888	0.777124	0.650865
542	C	0.228115	0.781734	0.95291
543	N	0.244768	0.771856	0.959798
544	C	0.243224	0.757281	0.662978
545	C	0.223496	0.752079	0.69564
546	C	0.20599	0.762113	0.689345
547	H	0.191758	0.758401	0.712975
548	C	0.26061	0.747079	0.002869
549	C	0.294651	0.725875	0.016944
550	C	0.274634	0.721441	0.71524
551	H	0.230767	0.792652	0.924711
552	N	0.279934	0.751069	0.97302
553	C	0.257598	0.731987	0.708499
554	N	0.238161	0.727955	0.73817
555	N	0.222031	0.737477	0.732105
556	H	0.272064	0.710291	0.743172
557	C	0.29666	0.741169	0.978798
558	H	0.310625	0.744849	0.954755
559	C	0.312862	0.714685	0.021191
560	H	0.333548	0.731125	0.018903
561	H	0.309012	0.70149	0.992573
562	C	0.189182	0.787662	0.645769
563	H	0.192773	0.801132	0.673875
564	H	0.168679	0.770908	0.64845
565	C	0.221818	0.930552	0.650838
566	C	0.217199	0.946167	0.952894
567	N	0.227079	0.972697	0.959784
568	C	0.241657	0.985729	0.662961
569	C	0.246867	0.971203	0.695613
570	C	0.236836	0.943665	0.689315
571	H	0.240554	0.933147	0.712942
572	C	0.251858	0.513317	0.002854
573	C	0.273059	0.56856	0.016937
574	C	0.277502	0.55298	0.715223
575	H	0.206277	0.937901	0.924698
576	N	0.247861	0.528649	0.97301
577	C	0.266956	0.525397	0.708479
578	N	0.270996	0.509993	0.738143
579	N	0.261475	0.984341	0.732075
580	H	0.288655	0.56156	0.743153
581	C	0.25776	0.555276	0.978795
582	H	0.254074	0.56556	0.954759
583	C	0.284244	0.597961	0.021188
584	H	0.267803	0.602205	0.018907
585	H	0.297438	0.607309	0.99257
586	C	0.21128	0.901308	0.645742
587	H	0.197818	0.89143	0.673858
588	H	0.228037	0.89756	0.648413
589	C	0.068378	0.791054	0.650838
590	C	0.052766	0.770818	0.9529
591	N	0.026233	0.754163	0.959788
592	C	0.013201	0.755715	0.662961
593	C	0.027725	0.775456	0.695606
594	C	0.055264	0.792962	0.689308
595	H	0.06578	0.8072	0.712932
596	C	0.485614	0.738327	0.002853
597	C	0.43037	0.70428	0.016937
598	C	0.44595	0.724309	0.715216
599	H	0.061033	0.768158	0.924708
600	N	0.470282	0.718993	0.973016
601	C	0.473531	0.741347	0.708475
602	N	0.488933	0.760795	0.738133
603	N	0.014585	0.776928	0.732062
604	H	0.437368	0.726885	0.743143
605	C	0.443657	0.702264	0.978801
606	H	0.433374	0.68829	0.954769
607	C	0.40097	0.686064	0.021189
608	H	0.396729	0.66538	0.018912
609	H	0.391622	0.689908	0.99257
610	C	0.097623	0.80976	0.645746
611	H	0.1075	0.80618	0.673865
612	H	0.101369	0.830265	0.648407
613	C	0.678541	0.317164	0.936065
614	C	0.650367	0.304859	0.935855
615	C	0.63777	0.32039	0.936065
616	C	0.653642	0.348566	0.935845
617	C	0.681769	0.361162	0.936058
618	C	0.694073	0.34529	0.935831
619	H	0.644619	0.359958	0.936011
620	H	0.714488	0.354312	0.936021
621	H	0.638973	0.284445	0.936031
622	N	0.691924	0.302301	0.936881
623	H	0.685554	0.289277	0.910403
624	N	0.696631	0.389407	0.936864
625	H	0.709647	0.396059	0.910376
626	N	0.609525	0.307009	0.936871
627	H	0.602873	0.313372	0.91038
628	C	0.821596	0.183246	0.062717
629	C	0.849611	0.19414	0.062875
630	C	0.860798	0.177334	0.062717
631	C	0.843678	0.149319	0.062874
632	C	0.815685	0.138133	0.062717
633	C	0.804791	0.155253	0.062876
634	H	0.851686	0.137017	0.063034
635	H	0.784479	0.147245	0.063037
636	H	0.861915	0.214452	0.063034
637	N	0.809602	0.199395	0.062829
638	H	0.816575	0.212134	0.089668
639	N	0.799537	0.109989	0.062826
640	H	0.786798	0.104223	0.089667
641	N	0.888942	0.189329	0.062825
642	H	0.894708	0.182359	0.089668
643	C	0.707888	0.277123	0.984197
644	C	0.728116	0.281735	0.286243
645	N	0.744768	0.271855	0.293131
646	C	0.743225	0.257283	0.996313
647	C	0.723495	0.252078	0.028974
648	C	0.705991	0.262115	0.022677
649	H	0.691758	0.258401	0.046309
650	C	0.760612	0.24708	0.336203
651	C	0.794651	0.225874	0.350278
652	C	0.774634	0.22144	0.048572
653	H	0.730767	0.292653	0.258043
654	N	0.779934	0.251068	0.306352
655	C	0.757599	0.231988	0.041834
656	N	0.73816	0.227954	0.071505
657	N	0.722031	0.237476	0.06544
658	H	0.772064	0.21029	0.076504
659	C	0.796661	0.241168	0.312132
660	H	0.810625	0.244848	0.288089
661	C	0.812863	0.214686	0.354524
662	H	0.833549	0.231126	0.352236
663	H	0.809012	0.20149	0.325908
664	C	0.689183	0.287663	0.979101
665	H	0.692773	0.301131	0.007208
666	H	0.668678	0.270907	0.981786
667	C	0.721818	0.430552	0.984174
668	C	0.717201	0.446166	0.286227
669	N	0.727079	0.472698	0.293117
670	C	0.741657	0.485729	0.996293
671	C	0.746869	0.471204	0.028946
672	C	0.736835	0.443664	0.022647
673	H	0.740554	0.433146	0.046274
674	C	0.751859	0.013316	0.336186
675	C	0.77306	0.06856	0.350271
676	C	0.777501	0.052979	0.048555
677	H	0.706276	0.4379	0.258032
678	N	0.747861	0.02865	0.306344
679	C	0.766956	0.025397	0.041813
680	N	0.770996	0.009993	0.071476
681	N	0.761477	0.484343	0.065408
682	H	0.788656	0.061559	0.076484
683	C	0.75776	0.055275	0.312129
684	H	0.754074	0.065559	0.288092
685	C	0.784245	0.09796	0.354521
686	H	0.767803	0.102204	0.352239
687	H	0.797438	0.107308	0.325904
688	C	0.71128	0.401307	0.979078
689	H	0.697819	0.391429	0.007192
690	H	0.728036	0.397559	0.981746
691	C	0.568378	0.291053	0.984174
692	C	0.552766	0.270817	0.286232
693	N	0.526234	0.254162	0.293122
694	C	0.5132	0.255715	0.996293
695	C	0.527725	0.275455	0.028941
696	C	0.555265	0.292963	0.022642
697	H	0.565781	0.307201	0.046265
698	C	0.985614	0.238326	0.336186
699	C	0.93037	0.204282	0.350271
700	C	0.945951	0.22431	0.04855
701	H	0.561033	0.268157	0.258042
702	N	0.970282	0.218992	0.306349
703	C	0.973532	0.241348	0.041807
704	N	0.988933	0.260795	0.071465
705	N	0.514585	0.276927	0.065397
706	H	0.937367	0.226884	0.076475
707	C	0.943658	0.202264	0.312134
708	H	0.933375	0.188291	0.288101
709	C	0.90097	0.186065	0.354524
710	H	0.896729	0.16538	0.352246
711	H	0.891621	0.189908	0.325903
712	C	0.597622	0.309759	0.979078
713	H	0.607501	0.306179	0.007197
714	H	0.60137	0.330266	0.981739
715	C	0.678541	0.317164	0.269399
716	C	0.650367	0.304859	0.269188
717	C	0.63777	0.32039	0.269398
718	C	0.653642	0.348566	0.269177
719	C	0.681769	0.361162	0.26939
720	C	0.694073	0.34529	0.269166
721	H	0.644619	0.359958	0.269345
722	H	0.714488	0.354312	0.269353
723	H	0.638973	0.284445	0.269364
724	N	0.691924	0.302301	0.270213
725	H	0.685554	0.289277	0.243735
726	N	0.696631	0.389407	0.270198
727	H	0.709647	0.396059	0.243711
728	N	0.609525	0.307009	0.270204
729	H	0.602873	0.313372	0.243713
730	C	0.821596	0.183246	0.396052
731	C	0.849611	0.19414	0.396209
732	C	0.860798	0.177334	0.396052
733	C	0.843678	0.149319	0.396209
734	C	0.815685	0.138133	0.396052
735	C	0.804791	0.155253	0.396209
736	H	0.851686	0.137017	0.396368
737	H	0.784479	0.147245	0.396368
738	H	0.861915	0.214452	0.396368
739	N	0.809602	0.199395	0.396162
740	H	0.816575	0.212134	0.423002
741	N	0.799537	0.109989	0.396159
742	H	0.786798	0.104223	0.422999
743	N	0.888942	0.189329	0.396159
744	H	0.894708	0.182359	0.423002
745	C	0.707888	0.277123	0.31753
746	C	0.728116	0.281735	0.619578
747	N	0.744768	0.271855	0.626465
748	C	0.743225	0.257283	0.329646
749	C	0.723495	0.252078	0.362307
750	C	0.705991	0.262115	0.35601
751	H	0.691758	0.258401	0.379643
752	C	0.760612	0.24708	0.669535
753	C	0.794651	0.225874	0.68361
754	C	0.774634	0.22144	0.381904
755	H	0.730767	0.292653	0.591375
756	N	0.779934	0.251068	0.639684
757	C	0.757599	0.231988	0.375167
758	N	0.73816	0.227954	0.404838
759	N	0.722031	0.237476	0.398773
760	H	0.772064	0.21029	0.409837
761	C	0.796661	0.241168	0.645466
762	H	0.810625	0.244848	0.621423
763	C	0.812863	0.214686	0.687856
764	H	0.833549	0.231126	0.685568
765	H	0.809012	0.20149	0.659241
766	C	0.689183	0.287663	0.312434
767	H	0.692773	0.301131	0.340539
768	H	0.668678	0.270907	0.315118
769	C	0.721818	0.430552	0.317506
770	C	0.717201	0.446166	0.619561
771	N	0.727079	0.472698	0.626449
772	C	0.741657	0.485729	0.329627
773	C	0.746869	0.471204	0.362281
774	C	0.736835	0.443664	0.35598
775	H	0.740554	0.433146	0.379606
776	C	0.751859	0.013316	0.669522
777	C	0.77306	0.06856	0.683603
778	C	0.777501	0.052979	0.381887
779	H	0.706276	0.4379	0.591365
780	N	0.747861	0.02865	0.639677
781	C	0.766956	0.025397	0.375147
782	N	0.770996	0.009993	0.404808
783	N	0.761477	0.484343	0.39874
784	H	0.788656	0.061559	0.409817
785	C	0.75776	0.055275	0.645463
786	H	0.754074	0.065559	0.621426
787	C	0.784245	0.09796	0.687856
788	H	0.767803	0.102204	0.685575
789	H	0.797438	0.107308	0.659237
790	C	0.71128	0.401307	0.31241
791	H	0.697819	0.391429	0.340526
792	H	0.728036	0.397559	0.315078
793	C	0.568378	0.291053	0.317506
794	C	0.552766	0.270817	0.619565
795	N	0.526234	0.254162	0.626455
796	C	0.5132	0.255715	0.329626
797	C	0.527725	0.275455	0.362274
798	C	0.555265	0.292963	0.355976
799	H	0.565781	0.307201	0.379599
800	C	0.985614	0.238326	0.669519
801	C	0.93037	0.204282	0.683603
802	C	0.945951	0.22431	0.381884
803	H	0.561033	0.268157	0.591375
804	N	0.970282	0.218992	0.639681
805	C	0.973532	0.241348	0.37514
806	N	0.988933	0.260795	0.404798
807	N	0.514585	0.276927	0.39873
808	H	0.937367	0.226884	0.409807
809	C	0.943658	0.202264	0.645466
810	H	0.933375	0.188291	0.621433
811	C	0.90097	0.186065	0.687856
812	H	0.896729	0.16538	0.685578
813	H	0.891621	0.189908	0.659237
814	C	0.597622	0.309759	0.312411
815	H	0.607501	0.306179	0.340529
816	H	0.60137	0.330266	0.315073
817	C	0.678541	0.317164	0.602732
818	C	0.650367	0.304859	0.602523
819	C	0.63777	0.32039	0.602732
820	C	0.653642	0.348566	0.602509
821	C	0.681769	0.361162	0.602722
822	C	0.694073	0.34529	0.602499
823	H	0.644619	0.359958	0.602679
824	H	0.714488	0.354312	0.602686
825	H	0.638973	0.284445	0.602699
826	N	0.691924	0.302301	0.603548
827	H	0.685554	0.289277	0.577068
828	N	0.696631	0.389407	0.603532
829	H	0.709647	0.396059	0.577044
830	N	0.609525	0.307009	0.603538
831	H	0.602873	0.313372	0.577048
832	C	0.821596	0.183246	0.729384
833	C	0.849611	0.19414	0.729541
834	C	0.860798	0.177334	0.729384
835	C	0.843678	0.149319	0.729541
836	C	0.815685	0.138133	0.729384
837	C	0.804791	0.155253	0.729541
838	H	0.851686	0.137017	0.729701
839	H	0.784479	0.147245	0.729704
840	H	0.861915	0.214452	0.729701
841	N	0.809602	0.199395	0.729494
842	H	0.816575	0.212134	0.756335
843	N	0.799537	0.109989	0.729494
844	H	0.786798	0.104223	0.756335
845	N	0.888942	0.189329	0.729491
846	H	0.894708	0.182359	0.756335
847	C	0.707888	0.277123	0.650865
848	C	0.728116	0.281735	0.95291
849	N	0.744768	0.271855	0.959798
850	C	0.743225	0.257283	0.662978
851	C	0.723495	0.252078	0.69564
852	C	0.705991	0.262115	0.689345
853	H	0.691758	0.258401	0.712975
854	C	0.760612	0.24708	0.002869
855	C	0.794651	0.225874	0.016944
856	C	0.774634	0.22144	0.71524
857	H	0.730767	0.292653	0.924711
858	N	0.779934	0.251068	0.97302
859	C	0.757599	0.231988	0.708502
860	N	0.73816	0.227954	0.73817
861	N	0.722031	0.237476	0.732105
862	H	0.772064	0.21029	0.743172
863	C	0.796661	0.241168	0.978798
864	H	0.810625	0.244848	0.954755
865	C	0.812863	0.214686	0.021191
866	H	0.833549	0.231126	0.018903
867	H	0.809012	0.20149	0.992573
868	C	0.689183	0.287663	0.645769
869	H	0.692773	0.301131	0.673875
870	H	0.668678	0.270907	0.64845
871	C	0.721818	0.430552	0.650838
872	C	0.717201	0.446166	0.952894
873	N	0.727079	0.472698	0.959784
874	C	0.741657	0.485729	0.662961
875	C	0.746869	0.471204	0.695613
876	C	0.736835	0.443664	0.689315
877	H	0.740554	0.433146	0.712942
878	C	0.751859	0.013316	0.002854
879	C	0.77306	0.06856	0.016937
880	C	0.777501	0.052979	0.715223
881	H	0.706276	0.4379	0.924698
882	N	0.747861	0.02865	0.97301
883	C	0.766956	0.025397	0.708479
884	N	0.770996	0.009993	0.738143
885	N	0.761477	0.484343	0.732075
886	H	0.788656	0.061559	0.743153
887	C	0.75776	0.055275	0.978795
888	H	0.754074	0.065559	0.954759
889	C	0.784245	0.09796	0.021188
890	H	0.767803	0.102204	0.018907
891	H	0.797438	0.107308	0.99257
892	C	0.71128	0.401307	0.645742
893	H	0.697819	0.391429	0.673858
894	H	0.728036	0.397559	0.648413
895	C	0.568378	0.291053	0.650838
896	C	0.552766	0.270817	0.9529
897	N	0.526234	0.254162	0.959788
898	C	0.5132	0.255715	0.662961
899	C	0.527725	0.275455	0.695606
900	C	0.555265	0.292963	0.689308
901	H	0.565781	0.307201	0.712932
902	C	0.985614	0.238326	0.002853
903	C	0.93037	0.204282	0.016937
904	C	0.945951	0.22431	0.715216
905	H	0.561033	0.268157	0.924708
906	N	0.970282	0.218992	0.973016
907	C	0.973532	0.241348	0.708475
908	N	0.988933	0.260795	0.738133
909	N	0.514585	0.276927	0.732062
910	H	0.937367	0.226884	0.743143
911	C	0.943658	0.202264	0.978801
912	H	0.933375	0.188291	0.954769
913	C	0.90097	0.186065	0.021189
914	H	0.896729	0.16538	0.018912
915	H	0.891621	0.189908	0.99257
916	C	0.597622	0.309759	0.645746
917	H	0.607501	0.306179	0.673865
918	H	0.60137	0.330266	0.648407
919	C	0.67854	0.817162	0.936065
920	C	0.650365	0.80486	0.935855
921	C	0.63777	0.820391	0.936065
922	C	0.653641	0.848565	0.935845
923	C	0.681769	0.861161	0.936058
924	C	0.694073	0.845291	0.935831
925	H	0.644619	0.859959	0.936011
926	H	0.714486	0.854313	0.936021
927	H	0.638973	0.784444	0.936031
928	N	0.691924	0.802302	0.936881
929	H	0.685554	0.789278	0.910403
930	N	0.696631	0.889406	0.936864
931	H	0.709647	0.89606	0.910376
932	N	0.609525	0.807008	0.936871
933	H	0.602873	0.81337	0.91038
934	C	0.821597	0.683246	0.062717
935	C	0.849611	0.69414	0.062875
936	C	0.860798	0.677334	0.062717
937	C	0.843678	0.649319	0.062874
938	C	0.815686	0.638133	0.062717
939	C	0.804791	0.655254	0.062876
940	H	0.851687	0.637017	0.063034
941	H	0.784479	0.647245	0.063037
942	H	0.861914	0.714451	0.063034
943	N	0.809601	0.699394	0.062829
944	H	0.816575	0.712133	0.089668
945	N	0.799535	0.609989	0.062826
946	H	0.786798	0.604223	0.089667
947	N	0.888941	0.689328	0.062825
948	H	0.894708	0.68236	0.089668
949	C	0.707888	0.777124	0.984197
950	C	0.728115	0.781734	0.286243
951	N	0.744768	0.771856	0.293131
952	C	0.743225	0.757281	0.996313
953	C	0.723495	0.752079	0.028974
954	C	0.70599	0.762113	0.022677
955	H	0.691758	0.758401	0.046309
956	C	0.760611	0.747079	0.336203
957	C	0.79465	0.725875	0.350278
958	C	0.774634	0.721441	0.048572
959	H	0.730767	0.792652	0.258043
960	N	0.779934	0.751069	0.306352
961	C	0.757598	0.731987	0.041834
962	N	0.738161	0.727955	0.071505
963	N	0.722031	0.737477	0.06544
964	H	0.772064	0.710291	0.076504
965	C	0.796661	0.741169	0.312132
966	H	0.810626	0.744849	0.288089
967	C	0.812862	0.714685	0.354524
968	H	0.833548	0.731125	0.352236
969	H	0.809012	0.70149	0.325908
970	C	0.689182	0.787662	0.979101
971	H	0.692773	0.801132	0.007208
972	H	0.668679	0.770908	0.981786
973	C	0.721818	0.930552	0.984174
974	C	0.717199	0.946167	0.286227
975	N	0.727079	0.972697	0.293117
976	C	0.741657	0.985729	0.996293
977	C	0.746869	0.971203	0.028946
978	C	0.736836	0.943665	0.022647
979	H	0.740554	0.933147	0.046274
980	C	0.751859	0.513317	0.336186
981	C	0.77306	0.56856	0.350271
982	C	0.777501	0.55298	0.048555
983	H	0.706277	0.937901	0.258032
984	N	0.747861	0.528649	0.306344
985	C	0.766956	0.525397	0.041813
986	N	0.770996	0.509993	0.071476
987	N	0.761475	0.984341	0.065408
988	H	0.788656	0.56156	0.076484
989	C	0.757761	0.555276	0.312129
990	H	0.754074	0.56556	0.288092
991	C	0.784245	0.597961	0.354521
992	H	0.767803	0.602205	0.352239
993	H	0.797438	0.607309	0.325904
994	C	0.71128	0.901308	0.979078
995	H	0.697819	0.89143	0.007192
996	H	0.728037	0.89756	0.981746
997	C	0.568378	0.791054	0.984174
998	C	0.552765	0.770818	0.286232
999	N	0.526234	0.754163	0.293122
1000	C	0.513202	0.755715	0.996293
1001	C	0.527725	0.775456	0.028941
1002	C	0.555264	0.792962	0.022642
1003	H	0.56578	0.8072	0.046265
1004	C	0.985615	0.738327	0.336186
1005	C	0.93037	0.70428	0.350271
1006	C	0.945949	0.724309	0.04855
1007	H	0.561033	0.768158	0.258042
1008	N	0.970282	0.718993	0.306349
1009	C	0.973531	0.741347	0.041807
1010	N	0.988933	0.760795	0.071465
1011	N	0.514585	0.776928	0.065397
1012	H	0.937368	0.726885	0.076475
1013	C	0.943658	0.702264	0.312134
1014	H	0.933373	0.68829	0.288101
1015	C	0.90097	0.686064	0.354524
1016	H	0.896728	0.66538	0.352246
1017	H	0.891622	0.689908	0.325903
1018	C	0.597623	0.80976	0.979078
1019	H	0.607502	0.80618	0.007197
1020	H	0.601369	0.830265	0.981739
1021	C	0.67854	0.817162	0.269399
1022	C	0.650365	0.80486	0.269188
1023	C	0.63777	0.820391	0.269398
1024	C	0.653641	0.848565	0.269177
1025	C	0.681769	0.861161	0.26939
1026	C	0.694073	0.845291	0.269166
1027	H	0.644619	0.859959	0.269345
1028	H	0.714486	0.854313	0.269353
1029	H	0.638973	0.784444	0.269364
1030	N	0.691924	0.802302	0.270213
1031	H	0.685554	0.789278	0.243735
1032	N	0.696631	0.889406	0.270198
1033	H	0.709647	0.89606	0.243711
1034	N	0.609525	0.807008	0.270204
1035	H	0.602873	0.81337	0.243713
1036	C	0.821597	0.683246	0.396052
1037	C	0.849611	0.69414	0.396209
1038	C	0.860798	0.677334	0.396052
1039	C	0.843678	0.649319	0.396209
1040	C	0.815686	0.638133	0.396052
1041	C	0.804791	0.655254	0.396209
1042	H	0.851687	0.637017	0.396368
1043	H	0.784479	0.647245	0.396368
1044	H	0.861914	0.714451	0.396368
1045	N	0.809601	0.699394	0.396162
1046	H	0.816575	0.712133	0.423002
1047	N	0.799535	0.609989	0.396159
1048	H	0.786798	0.604223	0.422999
1049	N	0.888941	0.689328	0.396159
1050	H	0.894708	0.68236	0.423002
1051	C	0.707888	0.777124	0.31753
1052	C	0.728115	0.781734	0.619578
1053	N	0.744768	0.771856	0.626465
1054	C	0.743225	0.757281	0.329646
1055	C	0.723495	0.752079	0.362307
1056	C	0.70599	0.762113	0.35601
1057	H	0.691758	0.758401	0.379643
1058	C	0.760611	0.747079	0.669535
1059	C	0.79465	0.725875	0.68361
1060	C	0.774634	0.721441	0.381904
1061	H	0.730767	0.792652	0.591375
1062	N	0.779934	0.751069	0.639684
1063	C	0.757598	0.731987	0.375167
1064	N	0.738161	0.727955	0.404838
1065	N	0.722031	0.737477	0.398773
1066	H	0.772064	0.710291	0.409837
1067	C	0.796661	0.741169	0.645466
1068	H	0.810626	0.744849	0.621423
1069	C	0.812862	0.714685	0.687856
1070	H	0.833548	0.731125	0.685568
1071	H	0.809012	0.70149	0.659241
1072	C	0.689182	0.787662	0.312434
1073	H	0.692773	0.801132	0.340539
1074	H	0.668679	0.770908	0.315118
1075	C	0.721818	0.930552	0.317506
1076	C	0.717199	0.946167	0.619561
1077	N	0.727079	0.972697	0.626449
1078	C	0.741657	0.985729	0.329627
1079	C	0.746869	0.971203	0.362281
1080	C	0.736836	0.943665	0.35598
1081	H	0.740554	0.933147	0.379606
1082	C	0.751859	0.513317	0.669522
1083	C	0.77306	0.56856	0.683603
1084	C	0.777501	0.55298	0.381887
1085	H	0.706277	0.937901	0.591365
1086	N	0.747861	0.528649	0.639677
1087	C	0.766956	0.525397	0.375147
1088	N	0.770996	0.509993	0.404808
1089	N	0.761475	0.984341	0.39874
1090	H	0.788656	0.56156	0.409817
1091	C	0.757761	0.555276	0.645463
1092	H	0.754074	0.56556	0.621426
1093	C	0.784245	0.597961	0.687856
1094	H	0.767803	0.602205	0.685575
1095	H	0.797438	0.607309	0.659237
1096	C	0.71128	0.901308	0.31241
1097	H	0.697819	0.89143	0.340526
1098	H	0.728037	0.89756	0.315078
1099	C	0.568378	0.791054	0.317506
1100	C	0.552765	0.770818	0.619565
1101	N	0.526234	0.754163	0.626455
1102	C	0.513202	0.755715	0.329626
1103	C	0.527725	0.775456	0.362274
1104	C	0.555264	0.792962	0.355976
1105	H	0.56578	0.8072	0.379599
1106	C	0.985615	0.738327	0.669519
1107	C	0.93037	0.70428	0.683603
1108	C	0.945949	0.724309	0.381884
1109	H	0.561033	0.768158	0.591375
1110	N	0.970282	0.718993	0.639681
1111	C	0.973531	0.741347	0.37514
1112	N	0.988933	0.760795	0.404798
1113	N	0.514585	0.776928	0.39873
1114	H	0.937368	0.726885	0.409807
1115	C	0.943658	0.702264	0.645466
1116	H	0.933373	0.68829	0.621433
1117	C	0.90097	0.686064	0.687856
1118	H	0.896728	0.66538	0.685578
1119	H	0.891622	0.689908	0.659237
1120	C	0.597623	0.80976	0.312411
1121	H	0.607502	0.80618	0.340529
1122	H	0.601369	0.830265	0.315073
1123	C	0.67854	0.817162	0.602732
1124	C	0.650365	0.80486	0.602523
1125	C	0.63777	0.820391	0.602732
1126	C	0.653641	0.848565	0.602509
1127	C	0.681769	0.861161	0.602722
1128	C	0.694073	0.845291	0.602499
1129	H	0.644619	0.859959	0.602679
1130	H	0.714486	0.854313	0.602686
1131	H	0.638973	0.784444	0.602699
1132	N	0.691924	0.802302	0.603548
1133	H	0.685554	0.789278	0.577068
1134	N	0.696631	0.889406	0.603532
1135	H	0.709647	0.89606	0.577044
1136	N	0.609525	0.807008	0.603538
1137	H	0.602873	0.81337	0.577048
1138	C	0.821597	0.683246	0.729384
1139	C	0.849611	0.69414	0.729541
1140	C	0.860798	0.677334	0.729384
1141	C	0.843678	0.649319	0.729541
1142	C	0.815686	0.638133	0.729384
1143	C	0.804791	0.655254	0.729541
1144	H	0.851687	0.637017	0.729701
1145	H	0.784479	0.647245	0.729704
1146	H	0.861914	0.714451	0.729701
1147	N	0.809601	0.699394	0.729494
1148	H	0.816575	0.712133	0.756335
1149	N	0.799535	0.609989	0.729494
1150	H	0.786798	0.604223	0.756335
1151	N	0.888941	0.689328	0.729491
1152	H	0.894708	0.68236	0.756335
1153	C	0.707888	0.777124	0.650865
1154	C	0.728115	0.781734	0.95291
1155	N	0.744768	0.771856	0.959798
1156	C	0.743225	0.757281	0.662978
1157	C	0.723495	0.752079	0.69564
1158	C	0.70599	0.762113	0.689345
1159	H	0.691758	0.758401	0.712975
1160	C	0.760611	0.747079	0.002869
1161	C	0.79465	0.725875	0.016944
1162	C	0.774634	0.721441	0.71524
1163	H	0.730767	0.792652	0.924711
1164	N	0.779934	0.751069	0.97302
1165	C	0.757598	0.731987	0.708499
1166	N	0.738161	0.727955	0.73817
1167	N	0.722031	0.737477	0.732105
1168	H	0.772064	0.710291	0.743172
1169	C	0.796661	0.741169	0.978798
1170	H	0.810626	0.744849	0.954755
1171	C	0.812862	0.714685	0.021191
1172	H	0.833548	0.731125	0.018903
1173	H	0.809012	0.70149	0.992573
1174	C	0.689182	0.787662	0.645769
1175	H	0.692773	0.801132	0.673875
1176	H	0.668679	0.770908	0.64845
1177	C	0.721818	0.930552	0.650838
1178	C	0.717199	0.946167	0.952894
1179	N	0.727079	0.972697	0.959784
1180	C	0.741657	0.985729	0.662961
1181	C	0.746869	0.971203	0.695613
1182	C	0.736836	0.943665	0.689315
1183	H	0.740554	0.933147	0.712942
1184	C	0.751859	0.513317	0.002854
1185	C	0.77306	0.56856	0.016937
1186	C	0.777501	0.55298	0.715223
1187	H	0.706277	0.937901	0.924698
1188	N	0.747861	0.528649	0.97301
1189	C	0.766956	0.525397	0.708479
1190	N	0.770996	0.509993	0.738143
1191	N	0.761475	0.984341	0.732075
1192	H	0.788656	0.56156	0.743153
1193	C	0.757761	0.555276	0.978795
1194	H	0.754074	0.56556	0.954759
1195	C	0.784245	0.597961	0.021188
1196	H	0.767803	0.602205	0.018907
1197	H	0.797438	0.607309	0.99257
1198	C	0.71128	0.901308	0.645742
1199	H	0.697819	0.89143	0.673858
1200	H	0.728037	0.89756	0.648413
1201	C	0.568378	0.791054	0.650838
1202	C	0.552765	0.770818	0.9529
1203	N	0.526234	0.754163	0.959788
1204	C	0.513202	0.755715	0.662961
1205	C	0.527725	0.775456	0.695606
1206	C	0.555264	0.792962	0.689308
1207	H	0.56578	0.8072	0.712932
1208	C	0.985615	0.738327	0.002853
1209	C	0.93037	0.70428	0.016937
1210	C	0.945949	0.724309	0.715216
1211	H	0.561033	0.768158	0.924708
1212	N	0.970282	0.718993	0.973016
1213	C	0.973531	0.741347	0.708475
1214	N	0.988933	0.760795	0.738133
1215	N	0.514585	0.776928	0.732062
1216	H	0.937368	0.726885	0.743143
1217	C	0.943658	0.702264	0.978801
1218	H	0.933373	0.68829	0.954769
1219	C	0.90097	0.686064	0.021189
1220	H	0.896728	0.66538	0.018912
1221	H	0.891622	0.689908	0.99257
1222	C	0.597623	0.80976	0.645746
1223	H	0.607502	0.80618	0.673865
1224	H	0.601369	0.830265	0.648407
