data_C468H252N108O108_2018-02-15_10:32:43
#******************************************
#
# CIF file created by Zeo++
# Zeo++ is an open source package to
# analyze microporous materials
#
#*******************************************

_cell_length_a		43.9069   
_cell_length_b		43.9068   
_cell_length_c		30.0826   
_cell_angle_alpha		90   
_cell_angle_beta		90   
_cell_angle_gamma		120   

_symmetry_space_group_name_H-M		'P1'
_symmetry_Int_Tables_number		1
_symmetry_cell_setting		Monoclinic

loop_
_symmetry_equiv_pos_as_xyz
'+x,+y,+z'

loop_
_atom_site_label
_atom_site_type_symbol
_atom_site_fract_x
_atom_site_fract_y
_atom_site_fract_z
1	C	0.177636	0.36916	0.956873
2	C	0.141106	0.344615	0.956571
3	C	0.12739	0.307783	0.95679
4	C	0.151942	0.295804	0.956537
5	C	0.188775	0.318921	0.290142
6	C	0.200762	0.355455	0.956531
7	H	0.142595	0.269448	0.959386
8	H	0.227109	0.372452	0.959506
9	H	0.124096	0.353959	0.959443
10	C	0.189973	0.405594	0.963099
11	C	0.212881	0.306592	0.296354
12	C	0.090954	0.283673	0.96297
13	O	0.24758	0.330653	0.967215
14	O	0.165913	0.416229	0.967338
15	O	0.080317	0.248972	0.967158
16	C	0.324051	0.129591	0.040234
17	C	0.358943	0.158257	0.04029
18	C	0.366991	0.193786	0.040254
19	C	0.338318	0.200005	0.040291
20	C	0.302786	0.172527	0.373622
21	C	0.296566	0.137634	0.040308
22	H	0.343639	0.225364	0.037536
23	H	0.271205	0.117599	0.037564
24	H	0.378979	0.152938	0.037489
25	C	0.317245	0.094516	0.035298
26	C	0.274512	0.179324	0.368682
27	C	0.40206	0.222053	0.035266
28	O	0.24184	0.15186	0.027235
29	O	0.34471	0.089304	0.027201
30	O	0.407267	0.254732	0.027199
31	C	0.257528	0.224218	0.02318
32	C	0.261792	0.256503	0.038863
33	C	0.244289	0.272243	0.019426
34	C	0.221873	0.257548	0.315512
35	C	0.216308	0.22448	0.300825
36	C	0.234061	0.208504	0.320256
37	H	0.230965	0.186164	0.305641
38	H	0.200338	0.212395	0.274085
39	N	0.251724	0.300273	0.04423
40	O	0.281294	0.275089	0.074663
41	C	0.273557	0.301543	0.076213
42	H	0.283357	0.320604	0.100112
43	N	0.204104	0.27208	0.295682
44	H	0.184017	0.256461	0.277332
45	N	0.277767	0.21165	0.04098
46	H	0.296977	0.227785	0.060126
47	C	0.272359	0.03263	0.023188
48	C	0.240093	0.004607	0.038909
49	C	0.224349	0.471357	0.019488
50	C	0.239022	0.463631	0.315556
51	C	0.272079	0.491139	0.300834
52	C	0.288056	0.024873	0.320248
53	H	0.310385	0.044118	0.305611
54	H	0.284147	0.48725	0.274079
55	N	0.196341	0.450765	0.044325
56	O	0.221526	0.005528	0.074729
57	C	0.195085	0.471333	0.076309
58	H	0.176039	0.462074	0.100231
59	N	0.224485	0.431328	0.295735
60	H	0.240096	0.426862	0.277365
61	N	0.28493	0.065442	0.040972
62	H	0.268802	0.06852	0.060128
63	C	0.463941	0.239048	0.023132
64	C	0.491962	0.234785	0.03882
65	C	0.025201	0.252277	0.019372
66	C	0.032917	0.274671	0.315436
67	C	0.00542	0.280251	0.300762
68	C	0.471692	0.262507	0.3202
69	H	0.45245	0.265611	0.305592
70	H	0.009305	0.29622	0.274022
71	N	0.045798	0.24485	0.044183
72	O	0.49105	0.215297	0.074634
73	C	0.02524	0.223034	0.076182
74	H	0.034505	0.213241	0.100089
75	N	0.065224	0.292456	0.295628
76	H	0.069693	0.312538	0.277269
77	N	0.431136	0.218815	0.040939
78	H	0.42806	0.199609	0.060093
79	C	0.177636	0.36916	0.290207
80	C	0.141106	0.344615	0.289905
81	C	0.12739	0.307783	0.290124
82	C	0.151942	0.295804	0.289871
83	C	0.188775	0.318921	0.623474
84	C	0.200762	0.355455	0.289864
85	H	0.142595	0.269448	0.292719
86	H	0.227109	0.372452	0.292839
87	H	0.124096	0.353959	0.292778
88	C	0.189973	0.405594	0.296432
89	C	0.212881	0.306592	0.629687
90	C	0.090954	0.283673	0.296303
91	O	0.24758	0.330653	0.300548
92	O	0.165913	0.416229	0.300672
93	O	0.080317	0.248972	0.300492
94	C	0.324051	0.129591	0.373569
95	C	0.358943	0.158257	0.373622
96	C	0.366991	0.193786	0.373585
97	C	0.338318	0.200005	0.373625
98	C	0.302786	0.172527	0.706954
99	C	0.296566	0.137634	0.373642
100	H	0.343639	0.225364	0.370869
101	H	0.271205	0.117599	0.370896
102	H	0.378979	0.152938	0.370823
103	C	0.317245	0.094516	0.368629
104	C	0.274512	0.179324	0.702015
105	C	0.40206	0.222053	0.368599
106	O	0.24184	0.15186	0.360568
107	O	0.34471	0.089304	0.360534
108	O	0.407267	0.254732	0.360531
109	C	0.257528	0.224218	0.356512
110	C	0.261792	0.256503	0.372196
111	C	0.244289	0.272243	0.352759
112	C	0.221873	0.257548	0.648844
113	C	0.216308	0.22448	0.634158
114	C	0.234061	0.208504	0.653588
115	H	0.230965	0.186164	0.638975
116	H	0.200338	0.212395	0.607418
117	N	0.251724	0.300273	0.377564
118	O	0.281294	0.275089	0.407997
119	C	0.273557	0.301543	0.409546
120	H	0.283357	0.320604	0.433447
121	N	0.204104	0.27208	0.629016
122	H	0.184017	0.256461	0.610666
123	N	0.277767	0.21165	0.374313
124	H	0.296977	0.227785	0.393457
125	C	0.272359	0.03263	0.356522
126	C	0.240093	0.004607	0.372242
127	C	0.224349	0.471357	0.352822
128	C	0.239022	0.463631	0.648887
129	C	0.272079	0.491139	0.634168
130	C	0.288056	0.024873	0.653581
131	H	0.310385	0.044118	0.638945
132	H	0.284147	0.48725	0.607412
133	N	0.196341	0.450765	0.377657
134	O	0.221526	0.005528	0.40806
135	C	0.195085	0.471333	0.409643
136	H	0.176039	0.462074	0.433563
137	N	0.224485	0.431328	0.629069
138	H	0.240096	0.426862	0.610699
139	N	0.28493	0.065442	0.374303
140	H	0.268802	0.06852	0.39346
141	C	0.463941	0.239048	0.356466
142	C	0.491962	0.234785	0.372152
143	C	0.025201	0.252277	0.352706
144	C	0.032917	0.274671	0.648768
145	C	0.00542	0.280251	0.634095
146	C	0.471692	0.262507	0.653535
147	H	0.45245	0.265611	0.638925
148	H	0.009305	0.29622	0.607355
149	N	0.045798	0.24485	0.377514
150	O	0.49105	0.215297	0.407967
151	C	0.02524	0.223034	0.409516
152	H	0.034505	0.213241	0.43342
153	N	0.065224	0.292456	0.628962
154	H	0.069693	0.312538	0.610603
155	N	0.431136	0.218815	0.374273
156	H	0.42806	0.199609	0.393427
157	C	0.177636	0.36916	0.623541
158	C	0.141106	0.344615	0.623238
159	C	0.12739	0.307783	0.623457
160	C	0.151942	0.295804	0.623205
161	C	0.188775	0.318921	0.956807
162	C	0.200762	0.355455	0.623198
163	H	0.142595	0.269448	0.62605
164	H	0.227109	0.372452	0.626173
165	H	0.124096	0.353959	0.62611
166	C	0.189973	0.405594	0.629763
167	C	0.212881	0.306592	0.96302
168	C	0.090954	0.283673	0.629637
169	O	0.24758	0.330653	0.633879
170	O	0.165913	0.416229	0.634005
171	O	0.080317	0.248972	0.633826
172	C	0.324051	0.129591	0.706901
173	C	0.358943	0.158257	0.706958
174	C	0.366991	0.193786	0.706921
175	C	0.338318	0.200005	0.706958
176	C	0.302786	0.172527	0.040288
177	C	0.296566	0.137634	0.706974
178	H	0.343639	0.225364	0.704202
179	H	0.271205	0.117599	0.704229
180	H	0.378979	0.152938	0.704155
181	C	0.317245	0.094516	0.701965
182	C	0.274512	0.179324	0.03535
183	C	0.40206	0.222053	0.701932
184	O	0.24184	0.15186	0.6939
185	O	0.34471	0.089304	0.693867
186	O	0.407267	0.254732	0.693864
187	C	0.257528	0.224218	0.689845
188	C	0.261792	0.256503	0.705528
189	C	0.244289	0.272243	0.686092
190	C	0.221873	0.257548	0.982177
191	C	0.216308	0.22448	0.967491
192	C	0.234061	0.208504	0.98692
193	H	0.230965	0.186164	0.972307
194	H	0.200338	0.212395	0.940751
195	N	0.251724	0.300273	0.710897
196	O	0.281294	0.275089	0.74133
197	C	0.273557	0.301543	0.742879
198	H	0.283357	0.320604	0.76678
199	N	0.204104	0.27208	0.962348
200	H	0.184017	0.256461	0.943999
201	N	0.277767	0.21165	0.707646
202	H	0.296977	0.227785	0.72679
203	C	0.272359	0.03263	0.689855
204	C	0.240093	0.004607	0.705575
205	C	0.224349	0.471357	0.686155
206	C	0.239022	0.463631	0.98222
207	C	0.272079	0.491139	0.967501
208	C	0.288056	0.024873	0.986914
209	H	0.310385	0.044118	0.972277
210	H	0.284147	0.48725	0.940744
211	N	0.196341	0.450765	0.71099
212	O	0.221526	0.005528	0.741396
213	C	0.195085	0.471333	0.742975
214	H	0.176039	0.462074	0.766896
215	N	0.224485	0.431328	0.962401
216	H	0.240096	0.426862	0.944032
217	N	0.28493	0.065442	0.707636
218	H	0.268802	0.06852	0.726793
219	C	0.463941	0.239048	0.689798
220	C	0.491962	0.234785	0.705485
221	C	0.025201	0.252277	0.686039
222	C	0.032917	0.274671	0.9821
223	C	0.00542	0.280251	0.967427
224	C	0.471692	0.262507	0.986867
225	H	0.45245	0.265611	0.972258
226	H	0.009305	0.29622	0.940688
227	N	0.045798	0.24485	0.71085
228	O	0.49105	0.215297	0.7413
229	C	0.02524	0.223034	0.742849
230	H	0.034505	0.213241	0.766753
231	N	0.065224	0.292456	0.962295
232	H	0.069693	0.312538	0.943935
233	N	0.431136	0.218815	0.707606
234	H	0.42806	0.199609	0.72676
235	C	0.177635	0.869159	0.956873
236	C	0.141104	0.844614	0.956571
237	C	0.127389	0.807783	0.95679
238	C	0.151942	0.795804	0.956537
239	C	0.188774	0.81892	0.290142
240	C	0.200762	0.855455	0.956531
241	H	0.142596	0.769449	0.959386
242	H	0.227109	0.872454	0.959506
243	H	0.124096	0.853958	0.959443
244	C	0.189971	0.905593	0.963099
245	C	0.212881	0.806591	0.296354
246	C	0.090953	0.783672	0.96297
247	O	0.247579	0.830652	0.967215
248	O	0.165911	0.916229	0.967338
249	O	0.080318	0.748973	0.967158
250	C	0.324049	0.629589	0.040234
251	C	0.358943	0.658258	0.04029
252	C	0.36699	0.693785	0.040254
253	C	0.338317	0.700005	0.040291
254	C	0.302787	0.672528	0.373622
255	C	0.296566	0.637634	0.040308
256	H	0.343639	0.725365	0.037536
257	H	0.271204	0.6176	0.037564
258	H	0.378979	0.652938	0.037489
259	C	0.317244	0.594515	0.035298
260	C	0.274511	0.679323	0.368682
261	C	0.402059	0.722054	0.035266
262	O	0.24184	0.651859	0.027235
263	O	0.34471	0.589305	0.027201
264	O	0.407268	0.754733	0.027199
265	C	0.257527	0.724218	0.02318
266	C	0.261792	0.756503	0.038863
267	C	0.244288	0.772242	0.019426
268	C	0.221872	0.757549	0.315512
269	C	0.216306	0.724478	0.300825
270	C	0.234061	0.708504	0.320256
271	H	0.230964	0.686164	0.305641
272	H	0.200337	0.712394	0.274085
273	N	0.251723	0.800272	0.04423
274	O	0.281295	0.775091	0.074663
275	C	0.273557	0.801542	0.076213
276	H	0.283358	0.820606	0.100112
277	N	0.204104	0.772079	0.295682
278	H	0.184017	0.75646	0.277332
279	N	0.277766	0.71165	0.04098
280	H	0.296976	0.727784	0.060126
281	C	0.272359	0.532628	0.023188
282	C	0.240092	0.504607	0.038909
283	C	0.224349	0.971356	0.019488
284	C	0.239024	0.963632	0.315556
285	C	0.272078	0.991138	0.300834
286	C	0.288057	0.524873	0.320248
287	H	0.310384	0.544118	0.305611
288	H	0.284148	0.987251	0.274079
289	N	0.196341	0.950764	0.044325
290	O	0.221526	0.505527	0.074729
291	C	0.195084	0.971333	0.076309
292	H	0.176038	0.962073	0.100231
293	N	0.224484	0.931327	0.295735
294	H	0.240097	0.926864	0.277365
295	N	0.284928	0.565441	0.040971
296	H	0.268801	0.568521	0.060128
297	C	0.463941	0.739048	0.023132
298	C	0.491961	0.734785	0.03882
299	C	0.025202	0.752276	0.019372
300	C	0.032917	0.774672	0.315436
301	C	0.005419	0.78025	0.300762
302	C	0.471692	0.762507	0.3202
303	H	0.45245	0.76561	0.305592
304	H	0.009304	0.796219	0.274022
305	N	0.045799	0.74485	0.044183
306	O	0.49105	0.715297	0.074634
307	C	0.025239	0.723035	0.076182
308	H	0.034504	0.713241	0.100089
309	N	0.065222	0.792456	0.295628
310	H	0.069692	0.812538	0.277269
311	N	0.431135	0.718816	0.040939
312	H	0.428059	0.699608	0.060093
313	C	0.177635	0.869159	0.290207
314	C	0.141104	0.844614	0.289905
315	C	0.127389	0.807783	0.290124
316	C	0.151942	0.795804	0.289871
317	C	0.188774	0.81892	0.623474
318	C	0.200762	0.855455	0.289864
319	H	0.142596	0.769449	0.292719
320	H	0.227109	0.872454	0.292839
321	H	0.124096	0.853958	0.292778
322	C	0.189971	0.905593	0.296432
323	C	0.212881	0.806591	0.629687
324	C	0.090953	0.783672	0.296303
325	O	0.247579	0.830652	0.300548
326	O	0.165911	0.916229	0.300672
327	O	0.080318	0.748973	0.300492
328	C	0.324049	0.629589	0.373569
329	C	0.358943	0.658258	0.373622
330	C	0.36699	0.693785	0.373585
331	C	0.338317	0.700005	0.373625
332	C	0.302787	0.672528	0.706954
333	C	0.296566	0.637634	0.373642
334	H	0.343639	0.725365	0.370869
335	H	0.271204	0.6176	0.370896
336	H	0.378979	0.652938	0.370823
337	C	0.317244	0.594515	0.368629
338	C	0.274511	0.679323	0.702015
339	C	0.402059	0.722054	0.368599
340	O	0.24184	0.651859	0.360568
341	O	0.34471	0.589305	0.360534
342	O	0.407268	0.754733	0.360531
343	C	0.257527	0.724218	0.356512
344	C	0.261792	0.756503	0.372196
345	C	0.244288	0.772242	0.352759
346	C	0.221872	0.757549	0.648844
347	C	0.216306	0.724478	0.634158
348	C	0.234061	0.708504	0.653588
349	H	0.230964	0.686164	0.638975
350	H	0.200337	0.712394	0.607418
351	N	0.251723	0.800272	0.377564
352	O	0.281295	0.775091	0.407997
353	C	0.273557	0.801542	0.409546
354	H	0.283358	0.820606	0.433447
355	N	0.204104	0.772079	0.629016
356	H	0.184017	0.75646	0.610666
357	N	0.277766	0.71165	0.374313
358	H	0.296976	0.727784	0.393457
359	C	0.272359	0.532628	0.356522
360	C	0.240092	0.504607	0.372242
361	C	0.224349	0.971356	0.352822
362	C	0.239024	0.963632	0.648887
363	C	0.272078	0.991138	0.634168
364	C	0.288057	0.524873	0.653581
365	H	0.310384	0.544118	0.638945
366	H	0.284148	0.987251	0.607412
367	N	0.196341	0.950764	0.377657
368	O	0.221526	0.505527	0.40806
369	C	0.195084	0.971333	0.409643
370	H	0.176038	0.962073	0.433563
371	N	0.224484	0.931327	0.629069
372	H	0.240097	0.926864	0.610699
373	N	0.284928	0.565441	0.374303
374	H	0.268801	0.568521	0.39346
375	C	0.463941	0.739048	0.356466
376	C	0.491961	0.734785	0.372152
377	C	0.025202	0.752276	0.352706
378	C	0.032917	0.774672	0.648768
379	C	0.005419	0.78025	0.634095
380	C	0.471692	0.762507	0.653535
381	H	0.45245	0.76561	0.638925
382	H	0.009304	0.796219	0.607355
383	N	0.045799	0.74485	0.377518
384	O	0.49105	0.715297	0.407967
385	C	0.025239	0.723035	0.409516
386	H	0.034504	0.713241	0.43342
387	N	0.065222	0.792456	0.628962
388	H	0.069692	0.812538	0.610603
389	N	0.431135	0.718816	0.374273
390	H	0.428059	0.699608	0.393427
391	C	0.177635	0.869159	0.623541
392	C	0.141104	0.844614	0.623238
393	C	0.127389	0.807783	0.623457
394	C	0.151942	0.795804	0.623205
395	C	0.188774	0.81892	0.956807
396	C	0.200762	0.855455	0.623198
397	H	0.142596	0.769449	0.62605
398	H	0.227109	0.872454	0.626173
399	H	0.124096	0.853958	0.62611
400	C	0.189971	0.905593	0.629763
401	C	0.212881	0.806591	0.96302
402	C	0.090953	0.783672	0.629637
403	O	0.247579	0.830652	0.633879
404	O	0.165911	0.916229	0.634005
405	O	0.080318	0.748973	0.633826
406	C	0.324049	0.629589	0.706901
407	C	0.358943	0.658258	0.706958
408	C	0.36699	0.693785	0.706921
409	C	0.338317	0.700005	0.706958
410	C	0.302787	0.672528	0.040288
411	C	0.296566	0.637634	0.706974
412	H	0.343639	0.725365	0.704202
413	H	0.271204	0.6176	0.704229
414	H	0.378979	0.652938	0.704155
415	C	0.317244	0.594515	0.701965
416	C	0.274511	0.679323	0.03535
417	C	0.402059	0.722054	0.701932
418	O	0.24184	0.651859	0.6939
419	O	0.34471	0.589305	0.693867
420	O	0.407268	0.754733	0.693864
421	C	0.257527	0.724218	0.689845
422	C	0.261792	0.756503	0.705528
423	C	0.244288	0.772242	0.686092
424	C	0.221872	0.757549	0.982177
425	C	0.216306	0.724478	0.967491
426	C	0.234061	0.708504	0.98692
427	H	0.230964	0.686164	0.972307
428	H	0.200337	0.712394	0.940751
429	N	0.251723	0.800272	0.710897
430	O	0.281295	0.775091	0.74133
431	C	0.273557	0.801542	0.742879
432	H	0.283358	0.820606	0.76678
433	N	0.204104	0.772079	0.962348
434	H	0.184017	0.75646	0.943999
435	N	0.277766	0.71165	0.707646
436	H	0.296976	0.727784	0.72679
437	C	0.272359	0.532628	0.689855
438	C	0.240092	0.504607	0.705575
439	C	0.224349	0.971356	0.686155
440	C	0.239024	0.963632	0.98222
441	C	0.272078	0.991138	0.967501
442	C	0.288057	0.524873	0.986914
443	H	0.310384	0.544118	0.972277
444	H	0.284148	0.987251	0.940744
445	N	0.196341	0.950764	0.71099
446	O	0.221526	0.505527	0.741396
447	C	0.195084	0.971333	0.742975
448	H	0.176038	0.962073	0.766896
449	N	0.224484	0.931327	0.962401
450	H	0.240097	0.926864	0.944032
451	N	0.284928	0.565441	0.707636
452	H	0.268801	0.568521	0.726793
453	C	0.463941	0.739048	0.689798
454	C	0.491961	0.734785	0.705485
455	C	0.025202	0.752276	0.686039
456	C	0.032917	0.774672	0.9821
457	C	0.005419	0.78025	0.967427
458	C	0.471692	0.762507	0.986867
459	H	0.45245	0.76561	0.972258
460	H	0.009304	0.796219	0.940688
461	N	0.045799	0.74485	0.71085
462	O	0.49105	0.715297	0.7413
463	C	0.025239	0.723035	0.742849
464	H	0.034504	0.713241	0.766753
465	N	0.065222	0.792456	0.962295
466	H	0.069692	0.812538	0.943935
467	N	0.431135	0.718816	0.707606
468	H	0.428059	0.699608	0.72676
469	C	0.677636	0.36916	0.956873
470	C	0.641106	0.344615	0.956571
471	C	0.627389	0.307783	0.95679
472	C	0.651941	0.295804	0.956537
473	C	0.688773	0.318921	0.290142
474	C	0.700761	0.355455	0.956531
475	H	0.642596	0.269448	0.959386
476	H	0.727109	0.372452	0.959506
477	H	0.624096	0.353959	0.959443
478	C	0.689973	0.405594	0.963099
479	C	0.71288	0.306592	0.296354
480	C	0.590952	0.283673	0.96297
481	O	0.747579	0.330653	0.967215
482	O	0.665912	0.416229	0.967338
483	O	0.580316	0.248972	0.967158
484	C	0.824049	0.129591	0.040234
485	C	0.858942	0.158257	0.04029
486	C	0.86699	0.193786	0.040254
487	C	0.838317	0.200005	0.040291
488	C	0.802786	0.172527	0.373622
489	C	0.796566	0.137634	0.040308
490	H	0.843638	0.225364	0.037536
491	H	0.771205	0.117599	0.037564
492	H	0.878978	0.152938	0.037489
493	C	0.817244	0.094516	0.035298
494	C	0.774511	0.179324	0.368682
495	C	0.902059	0.222053	0.035266
496	O	0.741839	0.15186	0.027235
497	O	0.844708	0.089304	0.027201
498	O	0.907268	0.254732	0.027199
499	C	0.757527	0.224218	0.02318
500	C	0.761792	0.256503	0.038863
501	C	0.744288	0.272243	0.019426
502	C	0.721872	0.257548	0.315512
503	C	0.716306	0.22448	0.300825
504	C	0.734059	0.208504	0.320256
505	H	0.730966	0.186164	0.305641
506	H	0.700339	0.212395	0.274085
507	N	0.751722	0.300273	0.04423
508	O	0.781295	0.275089	0.074663
509	C	0.773557	0.301543	0.076213
510	H	0.783356	0.320604	0.100112
511	N	0.704103	0.27208	0.295682
512	H	0.684018	0.256461	0.277332
513	N	0.777767	0.21165	0.04098
514	H	0.796976	0.227785	0.060126
515	C	0.77236	0.03263	0.023188
516	C	0.740092	0.004607	0.038909
517	C	0.724348	0.471357	0.019488
518	C	0.739022	0.463631	0.315556
519	C	0.772079	0.491139	0.300834
520	C	0.788057	0.024873	0.320248
521	H	0.810384	0.044118	0.305611
522	H	0.784147	0.48725	0.274079
523	N	0.69634	0.450765	0.044325
524	O	0.721525	0.005528	0.074729
525	C	0.695084	0.471333	0.076309
526	H	0.676039	0.462074	0.100231
527	N	0.724485	0.431328	0.295735
528	H	0.740095	0.426862	0.277365
529	N	0.784929	0.065442	0.040972
530	H	0.7688	0.06852	0.060128
531	C	0.96394	0.239048	0.023132
532	C	0.991961	0.234785	0.03882
533	C	0.525201	0.252277	0.019372
534	C	0.532915	0.274671	0.315436
535	C	0.505419	0.280251	0.300762
536	C	0.971691	0.262507	0.3202
537	H	0.952451	0.265611	0.305592
538	H	0.509306	0.29622	0.274022
539	N	0.545798	0.24485	0.044183
540	O	0.991049	0.215297	0.074634
541	C	0.52524	0.223034	0.076182
542	H	0.534505	0.213241	0.100089
543	N	0.565224	0.292456	0.295628
544	H	0.569691	0.312538	0.277269
545	N	0.931135	0.218815	0.040939
546	H	0.928059	0.199609	0.060093
547	C	0.677636	0.36916	0.290207
548	C	0.641106	0.344615	0.289905
549	C	0.627389	0.307783	0.290124
550	C	0.651941	0.295804	0.289871
551	C	0.688773	0.318921	0.623474
552	C	0.700761	0.355455	0.289864
553	H	0.642596	0.269448	0.292719
554	H	0.727109	0.372452	0.292839
555	H	0.624096	0.353959	0.292778
556	C	0.689973	0.405594	0.296432
557	C	0.71288	0.306592	0.629687
558	C	0.590952	0.283673	0.296303
559	O	0.747579	0.330653	0.300548
560	O	0.665912	0.416229	0.300672
561	O	0.580316	0.248972	0.300492
562	C	0.824049	0.129591	0.373569
563	C	0.858942	0.158257	0.373622
564	C	0.86699	0.193786	0.373585
565	C	0.838317	0.200005	0.373625
566	C	0.802786	0.172527	0.706954
567	C	0.796566	0.137634	0.373642
568	H	0.843638	0.225364	0.370869
569	H	0.771205	0.117599	0.370896
570	H	0.878978	0.152938	0.370823
571	C	0.817244	0.094516	0.368629
572	C	0.774511	0.179324	0.702015
573	C	0.902059	0.222053	0.368599
574	O	0.741839	0.15186	0.360568
575	O	0.844708	0.089304	0.360534
576	O	0.907268	0.254732	0.360531
577	C	0.757527	0.224218	0.356512
578	C	0.761792	0.256503	0.372196
579	C	0.744288	0.272243	0.352759
580	C	0.721872	0.257548	0.648844
581	C	0.716306	0.22448	0.634158
582	C	0.734059	0.208504	0.653588
583	H	0.730966	0.186164	0.638975
584	H	0.700339	0.212395	0.607418
585	N	0.751722	0.300273	0.377564
586	O	0.781295	0.275089	0.407997
587	C	0.773557	0.301543	0.409546
588	H	0.783356	0.320604	0.433447
589	N	0.704103	0.27208	0.629016
590	H	0.684018	0.256461	0.610666
591	N	0.777767	0.21165	0.374313
592	H	0.796976	0.227785	0.393457
593	C	0.77236	0.03263	0.356522
594	C	0.740092	0.004607	0.372242
595	C	0.724348	0.471357	0.352822
596	C	0.739022	0.463631	0.648887
597	C	0.772079	0.491139	0.634168
598	C	0.788057	0.024873	0.653581
599	H	0.810384	0.044118	0.638945
600	H	0.784147	0.48725	0.607412
601	N	0.69634	0.450765	0.377657
602	O	0.721525	0.005528	0.40806
603	C	0.695084	0.471333	0.409643
604	H	0.676039	0.462074	0.433563
605	N	0.724485	0.431328	0.629069
606	H	0.740095	0.426862	0.610699
607	N	0.784929	0.065442	0.374303
608	H	0.7688	0.06852	0.39346
609	C	0.96394	0.239048	0.356466
610	C	0.991961	0.234785	0.372152
611	C	0.525201	0.252277	0.352706
612	C	0.532915	0.274671	0.648768
613	C	0.505419	0.280251	0.634095
614	C	0.971691	0.262507	0.653535
615	H	0.952451	0.265611	0.638925
616	H	0.509306	0.29622	0.607355
617	N	0.545798	0.24485	0.377514
618	O	0.991049	0.215297	0.407967
619	C	0.52524	0.223034	0.409516
620	H	0.534505	0.213241	0.43342
621	N	0.565224	0.292456	0.628962
622	H	0.569691	0.312538	0.610603
623	N	0.931135	0.218815	0.374273
624	H	0.928059	0.199609	0.393427
625	C	0.677636	0.36916	0.623541
626	C	0.641106	0.344615	0.623238
627	C	0.627389	0.307783	0.623457
628	C	0.651941	0.295804	0.623205
629	C	0.688773	0.318921	0.956807
630	C	0.700761	0.355455	0.623198
631	H	0.642596	0.269448	0.62605
632	H	0.727109	0.372452	0.626173
633	H	0.624096	0.353959	0.62611
634	C	0.689973	0.405594	0.629763
635	C	0.71288	0.306592	0.96302
636	C	0.590952	0.283673	0.629637
637	O	0.747579	0.330653	0.633879
638	O	0.665912	0.416229	0.634005
639	O	0.580316	0.248972	0.633826
640	C	0.824049	0.129591	0.706901
641	C	0.858942	0.158257	0.706958
642	C	0.86699	0.193786	0.706921
643	C	0.838317	0.200005	0.706958
644	C	0.802786	0.172527	0.040288
645	C	0.796566	0.137634	0.706974
646	H	0.843638	0.225364	0.704202
647	H	0.771205	0.117599	0.704229
648	H	0.878978	0.152938	0.704155
649	C	0.817244	0.094516	0.701965
650	C	0.774511	0.179324	0.03535
651	C	0.902059	0.222053	0.701932
652	O	0.741839	0.15186	0.6939
653	O	0.844708	0.089304	0.693867
654	O	0.907268	0.254732	0.693864
655	C	0.757527	0.224218	0.689845
656	C	0.761792	0.256503	0.705528
657	C	0.744288	0.272243	0.686092
658	C	0.721872	0.257548	0.982177
659	C	0.716306	0.22448	0.967491
660	C	0.734059	0.208504	0.98692
661	H	0.730966	0.186164	0.972307
662	H	0.700339	0.212395	0.940751
663	N	0.751722	0.300273	0.710897
664	O	0.781295	0.275089	0.74133
665	C	0.773557	0.301543	0.742879
666	H	0.783356	0.320604	0.76678
667	N	0.704103	0.27208	0.962348
668	H	0.684018	0.256461	0.943999
669	N	0.777767	0.21165	0.707646
670	H	0.796976	0.227785	0.72679
671	C	0.77236	0.03263	0.689855
672	C	0.740092	0.004607	0.705575
673	C	0.724348	0.471357	0.686155
674	C	0.739022	0.463631	0.98222
675	C	0.772079	0.491139	0.967501
676	C	0.788057	0.024873	0.986914
677	H	0.810384	0.044118	0.972277
678	H	0.784147	0.48725	0.940744
679	N	0.69634	0.450765	0.71099
680	O	0.721525	0.005528	0.741396
681	C	0.695084	0.471333	0.742975
682	H	0.676039	0.462074	0.766896
683	N	0.724485	0.431328	0.962401
684	H	0.740095	0.426862	0.944032
685	N	0.784929	0.065442	0.707636
686	H	0.7688	0.06852	0.726793
687	C	0.96394	0.239048	0.689798
688	C	0.991961	0.234785	0.705485
689	C	0.525201	0.252277	0.686039
690	C	0.532915	0.274671	0.9821
691	C	0.505419	0.280251	0.967427
692	C	0.971691	0.262507	0.986867
693	H	0.952451	0.265611	0.972258
694	H	0.509306	0.29622	0.940688
695	N	0.545798	0.24485	0.71085
696	O	0.991049	0.215297	0.7413
697	C	0.52524	0.223034	0.742849
698	H	0.534505	0.213241	0.766753
699	N	0.565224	0.292456	0.962295
700	H	0.569691	0.312538	0.943935
701	N	0.931135	0.218815	0.707606
702	H	0.928059	0.199609	0.72676
703	C	0.677634	0.869159	0.956873
704	C	0.641105	0.844614	0.956571
705	C	0.627389	0.807783	0.95679
706	C	0.651941	0.795804	0.956537
707	C	0.688773	0.81892	0.290142
708	C	0.700761	0.855455	0.956531
709	H	0.642594	0.769449	0.959386
710	H	0.72711	0.872454	0.959506
711	H	0.624095	0.853958	0.959443
712	C	0.689973	0.905593	0.963099
713	C	0.712879	0.806591	0.296354
714	C	0.590953	0.783672	0.96297
715	O	0.747578	0.830652	0.967215
716	O	0.665911	0.916229	0.967338
717	O	0.580316	0.748973	0.967158
718	C	0.824049	0.629589	0.040234
719	C	0.858942	0.658258	0.04029
720	C	0.86699	0.693785	0.040254
721	C	0.838317	0.700005	0.040291
722	C	0.802787	0.672528	0.373622
723	C	0.796566	0.637634	0.040308
724	H	0.843638	0.725365	0.037536
725	H	0.771205	0.6176	0.037564
726	H	0.878978	0.652938	0.037489
727	C	0.817243	0.594515	0.035298
728	C	0.774511	0.679323	0.368682
729	C	0.902059	0.722054	0.035266
730	O	0.741839	0.651859	0.027235
731	O	0.844709	0.589305	0.027201
732	O	0.907266	0.754733	0.027199
733	C	0.757527	0.724218	0.02318
734	C	0.761791	0.756503	0.038863
735	C	0.744287	0.772242	0.019426
736	C	0.721872	0.757549	0.315512
737	C	0.716306	0.724478	0.300825
738	C	0.73406	0.708504	0.320256
739	H	0.730963	0.686164	0.305641
740	H	0.700338	0.712394	0.274085
741	N	0.751722	0.800272	0.04423
742	O	0.781293	0.775091	0.074663
743	C	0.773557	0.801542	0.076213
744	H	0.783357	0.820606	0.100112
745	N	0.704103	0.772079	0.295682
746	H	0.684017	0.75646	0.277332
747	N	0.777767	0.71165	0.04098
748	H	0.796976	0.727784	0.060126
749	C	0.772359	0.532628	0.023188
750	C	0.740092	0.504607	0.038909
751	C	0.724348	0.971356	0.019488
752	C	0.739023	0.963632	0.315556
753	C	0.772078	0.991138	0.300834
754	C	0.788057	0.524873	0.320248
755	H	0.810384	0.544118	0.305611
756	H	0.784148	0.987251	0.274079
757	N	0.69634	0.950764	0.044325
758	O	0.721525	0.505527	0.074729
759	C	0.695084	0.971333	0.076309
760	H	0.676038	0.962073	0.100231
761	N	0.724485	0.931327	0.295735
762	H	0.740096	0.926864	0.277365
763	N	0.784928	0.565441	0.040971
764	H	0.768801	0.568521	0.060128
765	C	0.96394	0.739048	0.023132
766	C	0.991961	0.734785	0.03882
767	C	0.5252	0.752276	0.019372
768	C	0.532917	0.774672	0.315436
769	C	0.505418	0.78025	0.300762
770	C	0.97169	0.762507	0.3202
771	H	0.95245	0.76561	0.305592
772	H	0.509304	0.796219	0.274022
773	N	0.545797	0.74485	0.044183
774	O	0.99105	0.715297	0.074634
775	C	0.525239	0.723035	0.076182
776	H	0.534504	0.713241	0.100089
777	N	0.565222	0.792456	0.295628
778	H	0.569692	0.812538	0.277269
779	N	0.931135	0.718816	0.040939
780	H	0.928058	0.699608	0.060093
781	C	0.677634	0.869159	0.290207
782	C	0.641105	0.844614	0.289905
783	C	0.627389	0.807783	0.290124
784	C	0.651941	0.795804	0.289871
785	C	0.688773	0.81892	0.623474
786	C	0.700761	0.855455	0.289864
787	H	0.642594	0.769449	0.292719
788	H	0.72711	0.872454	0.292839
789	H	0.624095	0.853958	0.292778
790	C	0.689973	0.905593	0.296432
791	C	0.712879	0.806591	0.629687
792	C	0.590953	0.783672	0.296303
793	O	0.747578	0.830652	0.300548
794	O	0.665911	0.916229	0.300672
795	O	0.580316	0.748973	0.300492
796	C	0.824049	0.629589	0.373569
797	C	0.858942	0.658258	0.373622
798	C	0.86699	0.693785	0.373585
799	C	0.838317	0.700005	0.373625
800	C	0.802787	0.672528	0.706954
801	C	0.796566	0.637634	0.373642
802	H	0.843638	0.725365	0.370869
803	H	0.771205	0.6176	0.370896
804	H	0.878978	0.652938	0.370823
805	C	0.817243	0.594515	0.368629
806	C	0.774511	0.679323	0.702015
807	C	0.902059	0.722054	0.368599
808	O	0.741839	0.651859	0.360568
809	O	0.844709	0.589305	0.360534
810	O	0.907266	0.754733	0.360531
811	C	0.757527	0.724218	0.356512
812	C	0.761791	0.756503	0.372196
813	C	0.744287	0.772242	0.352759
814	C	0.721872	0.757549	0.648844
815	C	0.716306	0.724478	0.634158
816	C	0.73406	0.708504	0.653588
817	H	0.730963	0.686164	0.638975
818	H	0.700338	0.712394	0.607418
819	N	0.751722	0.800272	0.377564
820	O	0.781293	0.775091	0.407997
821	C	0.773557	0.801542	0.409546
822	H	0.783357	0.820606	0.433447
823	N	0.704103	0.772079	0.629016
824	H	0.684017	0.75646	0.610666
825	N	0.777767	0.71165	0.374313
826	H	0.796976	0.727784	0.393457
827	C	0.772359	0.532628	0.356522
828	C	0.740092	0.504607	0.372242
829	C	0.724348	0.971356	0.352822
830	C	0.739023	0.963632	0.648887
831	C	0.772078	0.991138	0.634168
832	C	0.788057	0.524873	0.653581
833	H	0.810384	0.544118	0.638945
834	H	0.784148	0.987251	0.607412
835	N	0.69634	0.950764	0.377657
836	O	0.721525	0.505527	0.40806
837	C	0.695084	0.971333	0.409643
838	H	0.676038	0.962073	0.433563
839	N	0.724485	0.931327	0.629069
840	H	0.740096	0.926864	0.610699
841	N	0.784928	0.565441	0.374303
842	H	0.768801	0.568521	0.39346
843	C	0.96394	0.739048	0.356466
844	C	0.991961	0.734785	0.372152
845	C	0.5252	0.752276	0.352706
846	C	0.532917	0.774672	0.648768
847	C	0.505418	0.78025	0.634095
848	C	0.97169	0.762507	0.653535
849	H	0.95245	0.76561	0.638925
850	H	0.509304	0.796219	0.607355
851	N	0.545797	0.74485	0.377518
852	O	0.99105	0.715297	0.407967
853	C	0.525239	0.723035	0.409516
854	H	0.534504	0.713241	0.43342
855	N	0.565222	0.792456	0.628962
856	H	0.569692	0.812538	0.610603
857	N	0.931135	0.718816	0.374273
858	H	0.928058	0.699608	0.393427
859	C	0.677634	0.869159	0.623541
860	C	0.641105	0.844614	0.623238
861	C	0.627389	0.807783	0.623457
862	C	0.651941	0.795804	0.623205
863	C	0.688773	0.81892	0.956807
864	C	0.700761	0.855455	0.623198
865	H	0.642594	0.769449	0.62605
866	H	0.72711	0.872454	0.626173
867	H	0.624095	0.853958	0.62611
868	C	0.689973	0.905593	0.629763
869	C	0.712879	0.806591	0.96302
870	C	0.590953	0.783672	0.629637
871	O	0.747578	0.830652	0.633879
872	O	0.665911	0.916229	0.634005
873	O	0.580316	0.748973	0.633826
874	C	0.824049	0.629589	0.706901
875	C	0.858942	0.658258	0.706958
876	C	0.86699	0.693785	0.706921
877	C	0.838317	0.700005	0.706958
878	C	0.802787	0.672528	0.040288
879	C	0.796566	0.637634	0.706974
880	H	0.843638	0.725365	0.704202
881	H	0.771205	0.6176	0.704229
882	H	0.878978	0.652938	0.704155
883	C	0.817243	0.594515	0.701965
884	C	0.774511	0.679323	0.03535
885	C	0.902059	0.722054	0.701932
886	O	0.741839	0.651859	0.6939
887	O	0.844709	0.589305	0.693867
888	O	0.907266	0.754733	0.693864
889	C	0.757527	0.724218	0.689845
890	C	0.761791	0.756503	0.705528
891	C	0.744287	0.772242	0.686092
892	C	0.721872	0.757549	0.982177
893	C	0.716306	0.724478	0.967491
894	C	0.73406	0.708504	0.98692
895	H	0.730963	0.686164	0.972307
896	H	0.700338	0.712394	0.940751
897	N	0.751722	0.800272	0.710897
898	O	0.781293	0.775091	0.74133
899	C	0.773557	0.801542	0.742879
900	H	0.783357	0.820606	0.76678
901	N	0.704103	0.772079	0.962348
902	H	0.684017	0.75646	0.943999
903	N	0.777767	0.71165	0.707646
904	H	0.796976	0.727784	0.72679
905	C	0.772359	0.532628	0.689855
906	C	0.740092	0.504607	0.705575
907	C	0.724348	0.971356	0.686155
908	C	0.739023	0.963632	0.98222
909	C	0.772078	0.991138	0.967501
910	C	0.788057	0.524873	0.986914
911	H	0.810384	0.544118	0.972277
912	H	0.784148	0.987251	0.940744
913	N	0.69634	0.950764	0.71099
914	O	0.721525	0.505527	0.741396
915	C	0.695084	0.971333	0.742975
916	H	0.676038	0.962073	0.766896
917	N	0.724485	0.931327	0.962401
918	H	0.740096	0.926864	0.944032
919	N	0.784928	0.565441	0.707636
920	H	0.768801	0.568521	0.726793
921	C	0.96394	0.739048	0.689798
922	C	0.991961	0.734785	0.705485
923	C	0.5252	0.752276	0.686039
924	C	0.532917	0.774672	0.9821
925	C	0.505418	0.78025	0.967427
926	C	0.97169	0.762507	0.986867
927	H	0.95245	0.76561	0.972258
928	H	0.509304	0.796219	0.940688
929	N	0.545797	0.74485	0.71085
930	O	0.99105	0.715297	0.7413
931	C	0.525239	0.723035	0.742849
932	H	0.534504	0.713241	0.766753
933	N	0.565222	0.792456	0.962295
934	H	0.569692	0.812538	0.943935
935	N	0.931135	0.718816	0.707606
936	H	0.928058	0.699608	0.72676
