data_C864H360N144_2018-02-15_10:36:03
#******************************************
#
# CIF file created by Zeo++
# Zeo++ is an open source package to
# analyze microporous materials
#
#*******************************************

_cell_length_a		46.3607   
_cell_length_b		46.3606   
_cell_length_c		29.5888   
_cell_angle_alpha		89.999   
_cell_angle_beta		90.001   
_cell_angle_gamma		120   

_symmetry_space_group_name_H-M		'P1'
_symmetry_Int_Tables_number		1
_symmetry_cell_setting		Triclinic

loop_
_symmetry_equiv_pos_as_xyz
'+x,+y,+z'

loop_
_atom_site_label
_atom_site_type_symbol
_atom_site_fract_x
_atom_site_fract_y
_atom_site_fract_z
1	C	0.028707	0.265403	0.34028
2	C	0.046608	0.301057	0.340111
3	C	0.082068	0.318771	0.340061
4	C	0.098952	0.300527	0.340253
5	C	0.082076	0.265406	0.340537
6	C	0.046621	0.247665	0.340439
7	C	0.028275	0.317912	0.340155
8	C	0.028318	0.21248	0.340402
9	H	0.12457	0.313331	0.340189
10	H	0.040173	0.343372	0.340115
11	H	0.040228	0.198928	0.340466
12	C	0.146995	0.250407	0.299319
13	N	0.118612	0.252128	0.301648
14	C	0.102457	0.250718	0.007399
15	C	0.118815	0.250909	0.047834
16	N	0.1488	0.252384	0.045384
17	H	0.111118	0.254859	0.078424
18	C	0.118787	0.370172	0.299296
19	N	0.148902	0.398533	0.301765
20	C	0.147415	0.398187	0.047903
21	N	0.118881	0.368226	0.045407
22	C	0.102465	0.353835	0.006291
23	H	0.110851	0.35876	0.268604
24	C	0.028707	0.265403	0.673612
25	C	0.046608	0.301057	0.673446
26	C	0.082068	0.318771	0.673396
27	C	0.098952	0.300527	0.673588
28	C	0.082076	0.265406	0.673872
29	C	0.046621	0.247665	0.673774
30	C	0.028275	0.317912	0.673487
31	C	0.028318	0.21248	0.673737
32	H	0.124569	0.313331	0.673524
33	H	0.040173	0.343372	0.67345
34	H	0.040228	0.198928	0.673801
35	C	0.146995	0.250407	0.632654
36	N	0.118612	0.252128	0.634982
37	C	0.102457	0.250718	0.340733
38	C	0.118815	0.250909	0.381167
39	N	0.1488	0.252384	0.378717
40	H	0.111118	0.254859	0.411756
41	C	0.118787	0.370172	0.63263
42	N	0.148902	0.398533	0.635101
43	C	0.147415	0.398187	0.381238
44	N	0.118881	0.368226	0.378741
45	C	0.102465	0.353835	0.339625
46	H	0.110851	0.35876	0.601936
47	C	0.028707	0.265403	0.006947
48	C	0.046608	0.301057	0.006778
49	C	0.082068	0.318771	0.006731
50	C	0.098952	0.300527	0.00692
51	C	0.082076	0.265406	0.007204
52	C	0.046621	0.247665	0.007106
53	C	0.028275	0.317912	0.006822
54	C	0.028318	0.21248	0.007068
55	H	0.12457	0.313332	0.006856
56	H	0.040173	0.343372	0.006785
57	H	0.040229	0.198928	0.007132
58	C	0.146995	0.250407	0.965986
59	N	0.118612	0.252128	0.968317
60	C	0.102457	0.250718	0.674068
61	C	0.118815	0.250909	0.714502
62	N	0.1488	0.252384	0.712052
63	H	0.111118	0.254859	0.745092
64	C	0.118787	0.370172	0.965965
65	N	0.148903	0.398533	0.968432
66	C	0.147414	0.398187	0.71457
67	N	0.118881	0.368226	0.712076
68	C	0.102465	0.353835	0.672956
69	H	0.110851	0.35876	0.935271
70	C	0.028707	0.765404	0.34028
71	C	0.046608	0.801056	0.340111
72	C	0.082069	0.818773	0.340061
73	C	0.098952	0.800528	0.340253
74	C	0.082076	0.765404	0.340537
75	C	0.046621	0.747666	0.340439
76	C	0.028274	0.817911	0.340155
77	C	0.028319	0.71248	0.340402
78	H	0.124571	0.813333	0.340189
79	H	0.040172	0.843373	0.340115
80	H	0.040229	0.698928	0.340466
81	C	0.146993	0.750406	0.299319
82	N	0.118611	0.752127	0.301648
83	C	0.102456	0.750717	0.007399
84	C	0.118815	0.750911	0.047834
85	N	0.148798	0.752383	0.045384
86	H	0.111118	0.754858	0.078424
87	C	0.118787	0.870173	0.299296
88	N	0.148902	0.898532	0.301765
89	C	0.147416	0.898188	0.047903
90	N	0.118881	0.868227	0.045407
91	C	0.102466	0.853837	0.006291
92	H	0.110852	0.858761	0.268604
93	C	0.028707	0.765405	0.673612
94	C	0.046608	0.801056	0.673446
95	C	0.082068	0.818773	0.673396
96	C	0.098953	0.800528	0.673588
97	C	0.082075	0.765405	0.673872
98	C	0.046621	0.747666	0.673774
99	C	0.028273	0.817911	0.673487
100	C	0.028318	0.71248	0.673737
101	H	0.12457	0.813333	0.673524
102	H	0.040174	0.843373	0.67345
103	H	0.040228	0.698928	0.673801
104	C	0.146994	0.750406	0.632654
105	N	0.11861	0.752127	0.634982
106	C	0.102456	0.750717	0.340733
107	C	0.118815	0.750911	0.381167
108	N	0.1488	0.752383	0.378717
109	H	0.111117	0.754858	0.411756
110	C	0.118788	0.870173	0.63263
111	N	0.148902	0.898532	0.635101
112	C	0.147415	0.898188	0.381235
113	N	0.118882	0.868227	0.378741
114	C	0.102465	0.853837	0.339625
115	H	0.110852	0.858761	0.601936
116	C	0.028708	0.765405	0.006947
117	C	0.046607	0.801056	0.006778
118	C	0.082068	0.818773	0.006731
119	C	0.098953	0.800528	0.00692
120	C	0.082076	0.765404	0.007204
121	C	0.046622	0.747666	0.007106
122	C	0.028275	0.817911	0.006822
123	C	0.028317	0.71248	0.007068
124	H	0.124569	0.813333	0.006856
125	H	0.040173	0.843373	0.006785
126	H	0.040227	0.698928	0.007132
127	C	0.146994	0.750406	0.965986
128	N	0.11861	0.752127	0.968317
129	C	0.102455	0.750717	0.674068
130	C	0.118816	0.750911	0.714502
131	N	0.148799	0.752383	0.712052
132	H	0.111118	0.754858	0.745092
133	C	0.118788	0.870173	0.965965
134	N	0.148901	0.898532	0.968432
135	C	0.147414	0.898188	0.71457
136	N	0.118882	0.868227	0.712076
137	C	0.102465	0.853837	0.672956
138	H	0.110851	0.858761	0.935271
139	C	0.251738	0.265047	0.006955
140	C	0.216084	0.247302	0.006788
141	C	0.198373	0.265052	0.006734
142	C	0.216627	0.300181	0.00692
143	C	0.251748	0.318415	0.007173
144	C	0.269484	0.300699	0.007116
145	C	0.199224	0.212115	0.006842
146	H	0.203828	0.313	0.006883
147	C	0.269621	0.247176	0.006969
148	C	0.251886	0.211524	0.007152
149	C	0.269649	0.193827	0.007319
150	C	0.216698	0.194652	0.007098
151	H	0.203147	0.169189	0.007176
152	H	0.173762	0.198556	0.006805
153	C	0.252098	0.488372	0.006937
154	C	0.269835	0.470457	0.006815
155	C	0.252077	0.434997	0.006798
156	C	0.21695	0.418127	0.007093
157	C	0.198719	0.435019	0.007275
158	C	0.216444	0.470472	0.007088
159	C	0.199576	0.488788	0.007008
160	H	0.204129	0.392511	0.007128
161	C	0.269977	0.024124	0.006937
162	C	0.269957	0.077479	0.006815
163	C	0.252226	0.042026	0.006778
164	C	0.217041	0.023714	0.006778
165	H	0.203481	0.035616	0.006748
166	H	0.174114	0.476888	0.007068
167	C	0.163319	0.250407	0.006352
168	H	0.158437	0.253879	0.26865
169	C	0.266511	0.398279	0.299364
170	N	0.264784	0.368174	0.301721
171	C	0.266436	0.353474	0.007413
172	C	0.266499	0.369768	0.047864
173	N	0.265017	0.398284	0.045584
174	C	0.266729	0.414576	0.006511
175	H	0.262855	0.406187	0.268755
176	H	0.262756	0.358183	0.078467
177	C	0.16366	0.41466	0.007554
178	H	0.159034	0.405833	0.078515
179	C	0.255076	0.114081	0.299476
180	N	0.25654	0.144063	0.301889
181	C	0.255011	0.158774	0.007635
182	C	0.255401	0.142629	0.048
183	N	0.257128	0.114258	0.045533
184	C	0.255257	0.097836	0.006484
185	H	0.258602	0.106182	0.268784
186	H	0.259315	0.154256	0.078598
187	C	0.251738	0.265047	0.34029
188	C	0.216084	0.247302	0.340121
189	C	0.198373	0.265052	0.340067
190	C	0.216627	0.300181	0.340253
191	C	0.251747	0.318415	0.340507
192	C	0.269484	0.300699	0.340449
193	C	0.199224	0.212115	0.340175
194	H	0.203828	0.313	0.340216
195	C	0.269621	0.247176	0.340304
196	C	0.251886	0.211524	0.340486
197	C	0.269649	0.193827	0.340652
198	C	0.216698	0.194652	0.340432
199	H	0.203147	0.16919	0.34051
200	H	0.173762	0.198556	0.340138
201	C	0.252097	0.488372	0.34027
202	C	0.269835	0.470457	0.340148
203	C	0.252077	0.434997	0.340128
204	C	0.216949	0.418127	0.340426
205	C	0.198719	0.435019	0.340608
206	C	0.216444	0.470472	0.340422
207	C	0.199575	0.488788	0.340341
208	H	0.204128	0.392511	0.340463
209	C	0.269976	0.024125	0.34027
210	C	0.269956	0.077479	0.340145
211	C	0.252226	0.042026	0.340108
212	C	0.217041	0.023714	0.340111
213	H	0.203481	0.035617	0.340081
214	H	0.174113	0.476888	0.340402
215	C	0.16332	0.250407	0.339685
216	H	0.158437	0.253879	0.601984
217	C	0.266511	0.398279	0.632698
218	N	0.264784	0.368174	0.635053
219	C	0.266436	0.353474	0.340747
220	C	0.266499	0.369768	0.381198
221	N	0.265016	0.398284	0.378916
222	C	0.26673	0.414578	0.339844
223	H	0.262855	0.406188	0.602088
224	H	0.262756	0.358183	0.4118
225	C	0.16366	0.41466	0.340889
226	H	0.159034	0.405833	0.411848
227	C	0.255077	0.114081	0.632809
228	N	0.25654	0.144063	0.635222
229	C	0.255011	0.158774	0.34097
230	C	0.255401	0.142629	0.381333
231	N	0.257127	0.114258	0.378866
232	C	0.255257	0.097836	0.339817
233	H	0.258602	0.106182	0.602119
234	H	0.259315	0.154256	0.411932
235	C	0.251738	0.265047	0.673622
236	C	0.216084	0.247302	0.673456
237	C	0.198373	0.265052	0.673399
238	C	0.216627	0.300181	0.673588
239	C	0.251747	0.318415	0.673842
240	C	0.269484	0.300699	0.673784
241	C	0.199224	0.212115	0.673507
242	H	0.203828	0.313	0.673551
243	C	0.269622	0.247176	0.673636
244	C	0.251886	0.211524	0.673821
245	C	0.269649	0.193827	0.673987
246	C	0.216698	0.194652	0.673764
247	H	0.203147	0.16919	0.673845
248	H	0.173762	0.198556	0.673473
249	C	0.252097	0.488372	0.673605
250	C	0.269835	0.470457	0.673483
251	C	0.252077	0.434997	0.673463
252	C	0.216949	0.418127	0.673761
253	C	0.198719	0.435019	0.673943
254	C	0.216444	0.470472	0.673757
255	C	0.199575	0.488788	0.673676
256	H	0.204128	0.392511	0.673794
257	C	0.269976	0.024125	0.673602
258	C	0.269956	0.077479	0.67348
259	C	0.252225	0.042026	0.673443
260	C	0.217041	0.023714	0.673443
261	H	0.203481	0.035617	0.673416
262	H	0.174113	0.476888	0.673737
263	C	0.16332	0.250407	0.673017
264	H	0.158437	0.253879	0.935319
265	C	0.266511	0.398279	0.966033
266	N	0.264784	0.368174	0.968388
267	C	0.266436	0.353474	0.674082
268	C	0.266499	0.369768	0.714533
269	N	0.265016	0.398284	0.712251
270	C	0.266729	0.414576	0.673179
271	H	0.262856	0.406188	0.935423
272	H	0.262756	0.358183	0.745135
273	C	0.16366	0.41466	0.674224
274	H	0.159034	0.405833	0.745183
275	C	0.255076	0.11408	0.966144
276	N	0.25654	0.144062	0.968557
277	C	0.255011	0.158774	0.674301
278	C	0.2554	0.142629	0.714668
279	N	0.257128	0.114258	0.712201
280	C	0.255257	0.097836	0.673152
281	H	0.258602	0.106182	0.93545
282	H	0.259315	0.154256	0.745267
283	C	0.251737	0.765046	0.006955
284	C	0.216084	0.747302	0.006788
285	C	0.198373	0.765053	0.006734
286	C	0.216626	0.80018	0.00692
287	C	0.251748	0.818416	0.007173
288	C	0.269483	0.800698	0.007116
289	C	0.199223	0.712114	0.006842
290	H	0.203827	0.812999	0.006883
291	C	0.269622	0.747178	0.006969
292	C	0.251886	0.711526	0.007153
293	C	0.269648	0.693827	0.007319
294	C	0.216697	0.694651	0.007098
295	H	0.203146	0.669189	0.007176
296	H	0.173762	0.698557	0.006805
297	C	0.252096	0.988371	0.006937
298	C	0.269835	0.970458	0.006815
299	C	0.252077	0.934998	0.006798
300	C	0.216949	0.918129	0.007093
301	C	0.198718	0.935018	0.007274
302	C	0.216445	0.970473	0.007088
303	C	0.199574	0.988787	0.007008
304	H	0.204129	0.892509	0.007127
305	C	0.269976	0.524124	0.006937
306	C	0.269957	0.577479	0.006815
307	C	0.252226	0.542027	0.006778
308	C	0.217041	0.523715	0.006778
309	H	0.203481	0.535616	0.006748
310	H	0.174114	0.976887	0.007068
311	C	0.16332	0.750408	0.006352
312	H	0.158436	0.753881	0.26865
313	C	0.26651	0.898278	0.299364
314	N	0.264784	0.868176	0.301721
315	C	0.266435	0.853473	0.007413
316	C	0.2665	0.869769	0.047864
317	N	0.265017	0.898285	0.045584
318	C	0.26673	0.914577	0.006511
319	H	0.262856	0.906189	0.268755
320	H	0.262755	0.858182	0.078467
321	C	0.163661	0.914662	0.007554
322	H	0.159034	0.905834	0.078515
323	C	0.255076	0.61408	0.299476
324	N	0.25654	0.644063	0.301889
325	C	0.25501	0.658773	0.007635
326	C	0.2554	0.642628	0.048
327	N	0.257128	0.614259	0.045533
328	C	0.255257	0.597836	0.006484
329	H	0.258602	0.606183	0.268784
330	H	0.259315	0.654257	0.078598
331	C	0.251737	0.765046	0.34029
332	C	0.216084	0.747302	0.340121
333	C	0.198374	0.765053	0.340067
334	C	0.216626	0.80018	0.340253
335	C	0.251748	0.818416	0.340507
336	C	0.269483	0.800698	0.340449
337	C	0.199224	0.712116	0.340175
338	H	0.203827	0.812999	0.340216
339	C	0.269622	0.747178	0.340304
340	C	0.251886	0.711526	0.340486
341	C	0.269648	0.693827	0.340652
342	C	0.216697	0.694651	0.340432
343	H	0.203146	0.669189	0.34051
344	H	0.173762	0.698557	0.340138
345	C	0.252095	0.988371	0.34027
346	C	0.269835	0.970458	0.340148
347	C	0.252077	0.934998	0.340128
348	C	0.216951	0.918129	0.340426
349	C	0.198719	0.935021	0.340608
350	C	0.216445	0.970473	0.340422
351	C	0.199573	0.988787	0.340341
352	H	0.204128	0.892509	0.340463
353	C	0.269977	0.524126	0.34027
354	C	0.269956	0.577479	0.340145
355	C	0.252226	0.542027	0.340108
356	C	0.217041	0.523715	0.340111
357	H	0.203482	0.535618	0.340081
358	H	0.174113	0.976887	0.340402
359	C	0.16332	0.750408	0.339685
360	H	0.158438	0.753881	0.601984
361	C	0.26651	0.898278	0.632698
362	N	0.264784	0.868176	0.635053
363	C	0.266435	0.853473	0.340747
364	C	0.266499	0.869769	0.381198
365	N	0.265017	0.898285	0.378916
366	C	0.266729	0.914577	0.339844
367	H	0.262856	0.906189	0.602088
368	H	0.262755	0.858182	0.4118
369	C	0.16366	0.914662	0.340889
370	H	0.159034	0.905834	0.411848
371	C	0.255076	0.61408	0.632809
372	N	0.25654	0.644063	0.635222
373	C	0.255011	0.658775	0.34097
374	C	0.2554	0.642628	0.381333
375	N	0.257127	0.614259	0.378866
376	C	0.255256	0.597836	0.339817
377	H	0.258602	0.606183	0.602119
378	H	0.259315	0.654257	0.411932
379	C	0.251737	0.765046	0.673622
380	C	0.216084	0.747302	0.673456
381	C	0.198373	0.765053	0.673399
382	C	0.216626	0.80018	0.673588
383	C	0.251748	0.818416	0.673842
384	C	0.269483	0.800698	0.673784
385	C	0.199224	0.712116	0.673507
386	H	0.203827	0.812999	0.673551
387	C	0.269622	0.747178	0.673636
388	C	0.251886	0.711526	0.673821
389	C	0.269648	0.693827	0.673987
390	C	0.216697	0.694651	0.673764
391	H	0.203146	0.669189	0.673845
392	H	0.173762	0.698557	0.673473
393	C	0.252097	0.988371	0.673605
394	C	0.269835	0.970458	0.673483
395	C	0.252077	0.934998	0.673463
396	C	0.21695	0.918129	0.673761
397	C	0.19872	0.935021	0.673943
398	C	0.216444	0.970473	0.673757
399	C	0.199575	0.988787	0.673676
400	H	0.204127	0.892509	0.673794
401	C	0.269977	0.524126	0.673602
402	C	0.269956	0.577479	0.67348
403	C	0.252226	0.542027	0.673443
404	C	0.217041	0.523715	0.673443
405	H	0.203482	0.535618	0.673416
406	H	0.174112	0.976887	0.673737
407	C	0.16332	0.750408	0.673017
408	H	0.158437	0.753881	0.935319
409	C	0.266511	0.898278	0.966033
410	N	0.264784	0.868176	0.968388
411	C	0.266435	0.853473	0.674082
412	C	0.2665	0.869769	0.714533
413	N	0.265017	0.898285	0.712251
414	C	0.266729	0.914577	0.673179
415	H	0.262856	0.906189	0.935423
416	H	0.262755	0.858182	0.745135
417	C	0.16366	0.914662	0.674224
418	H	0.159035	0.905834	0.745183
419	C	0.255076	0.61408	0.966144
420	N	0.25654	0.644063	0.968557
421	C	0.25501	0.658773	0.674301
422	C	0.2554	0.642628	0.714668
423	N	0.257128	0.614259	0.712201
424	C	0.255256	0.597836	0.673152
425	H	0.258602	0.606183	0.93545
426	H	0.259315	0.654257	0.745267
427	C	0.30467	0.317576	0.007068
428	C	0.304776	0.212086	0.007111
429	C	0.323006	0.247208	0.006852
430	C	0.305275	0.264932	0.006815
431	H	0.3176	0.199293	0.007109
432	C	0.322138	0.300116	0.006839
433	H	0.318226	0.343038	0.007119
434	C	0.305023	0.488776	0.006856
435	C	0.30563	0.042036	0.00713
436	C	0.323334	0.077496	0.007323
437	C	0.305077	0.094368	0.007119
438	C	0.322495	0.023713	0.00709
439	H	0.317873	0.119986	0.007145
440	H	0.318577	0.476868	0.006842
441	C	0.30467	0.317576	0.340402
442	C	0.304776	0.212086	0.340446
443	C	0.323006	0.247209	0.340186
444	C	0.305275	0.264932	0.340145
445	H	0.3176	0.199293	0.340442
446	C	0.322139	0.300116	0.340172
447	H	0.318226	0.343038	0.340453
448	C	0.305023	0.488776	0.340189
449	C	0.305629	0.042036	0.340463
450	C	0.323334	0.077496	0.340655
451	C	0.305079	0.094368	0.340453
452	C	0.322494	0.023713	0.340422
453	H	0.317873	0.119986	0.34048
454	H	0.318576	0.476868	0.340172
455	C	0.30467	0.317576	0.673737
456	C	0.304776	0.212086	0.673777
457	C	0.323006	0.247209	0.673517
458	C	0.305275	0.264932	0.67348
459	H	0.317601	0.199293	0.673777
460	C	0.322139	0.300116	0.673507
461	H	0.318226	0.343038	0.673788
462	C	0.305023	0.488776	0.673521
463	C	0.305629	0.042036	0.673798
464	C	0.323333	0.077496	0.67399
465	C	0.305078	0.094368	0.673788
466	C	0.322494	0.023713	0.673757
467	H	0.317874	0.119986	0.673811
468	H	0.318576	0.476868	0.673507
469	C	0.304669	0.817575	0.007068
470	C	0.304775	0.712086	0.007111
471	C	0.323007	0.74721	0.006852
472	C	0.305274	0.764931	0.006815
473	H	0.317601	0.699294	0.007109
474	C	0.322139	0.800117	0.006839
475	H	0.318225	0.843037	0.007119
476	C	0.305023	0.988777	0.006856
477	C	0.305629	0.542037	0.00713
478	C	0.323333	0.577497	0.007323
479	C	0.305078	0.594369	0.007119
480	C	0.322494	0.523713	0.00709
481	H	0.317873	0.619985	0.007145
482	H	0.318576	0.976867	0.006842
483	C	0.304669	0.817575	0.340402
484	C	0.304775	0.712086	0.340446
485	C	0.323007	0.74721	0.340186
486	C	0.305274	0.764931	0.340145
487	H	0.317601	0.699294	0.340442
488	C	0.322139	0.800117	0.340172
489	H	0.318225	0.843037	0.340453
490	C	0.305023	0.988777	0.340189
491	C	0.305629	0.542037	0.340463
492	C	0.323333	0.577497	0.340655
493	C	0.305078	0.594369	0.340453
494	C	0.322493	0.523713	0.340422
495	H	0.317873	0.619985	0.34048
496	H	0.318577	0.976869	0.340172
497	C	0.304669	0.817575	0.673737
498	C	0.304776	0.712086	0.673777
499	C	0.323007	0.74721	0.673517
500	C	0.305274	0.764931	0.67348
501	H	0.317601	0.699294	0.673777
502	C	0.322139	0.800117	0.673507
503	H	0.318225	0.843037	0.673788
504	C	0.305023	0.988777	0.673521
505	C	0.305629	0.542037	0.673798
506	C	0.323333	0.577497	0.67399
507	C	0.305078	0.594369	0.673788
508	C	0.322493	0.523713	0.673757
509	H	0.317873	0.619985	0.673811
510	H	0.318577	0.976869	0.673507
511	C	0.492954	0.247516	0.34029
512	C	0.475028	0.265244	0.340459
513	C	0.439565	0.247476	0.340645
514	C	0.422709	0.212349	0.340412
515	C	0.43961	0.194127	0.340162
516	C	0.475063	0.211864	0.340145
517	C	0.493338	0.300432	0.340402
518	H	0.39709	0.199518	0.340392
519	C	0.493392	0.195006	0.340179
520	H	0.481423	0.313979	0.340476
521	H	0.481498	0.169544	0.340162
522	H	0.3476	0.31368	0.006818
523	H	0.347956	0.03562	0.007175
524	C	0.374531	0.262268	0.29943
525	N	0.403038	0.260771	0.301801
526	C	0.419135	0.26211	0.007589
527	C	0.402578	0.26157	0.048007
528	N	0.372493	0.259876	0.045551
529	C	0.358074	0.261919	0.006474
530	H	0.363139	0.258868	0.268735
531	H	0.410253	0.257544	0.078567
532	C	0.403099	0.142612	0.29943
533	N	0.373119	0.114092	0.301888
534	C	0.358387	0.097913	0.007667
535	C	0.374503	0.114519	0.048018
536	N	0.402876	0.144617	0.045542
537	C	0.419268	0.159059	0.00644
538	H	0.411018	0.154012	0.268728
539	H	0.362857	0.106838	0.078608
540	C	0.492953	0.247516	0.673625
541	C	0.475027	0.265244	0.673794
542	C	0.439567	0.247476	0.67398
543	C	0.422709	0.212349	0.673747
544	C	0.439609	0.194127	0.673497
545	C	0.475065	0.211864	0.67348
546	C	0.493337	0.300432	0.673737
547	H	0.397091	0.199518	0.673727
548	C	0.493391	0.195006	0.673514
549	H	0.481423	0.313979	0.673811
550	H	0.481499	0.169544	0.673497
551	H	0.3476	0.31368	0.340152
552	H	0.347956	0.03562	0.34051
553	C	0.37453	0.262268	0.632765
554	N	0.403037	0.260771	0.635135
555	C	0.419137	0.26211	0.340922
556	C	0.402577	0.26157	0.38134
557	N	0.372494	0.259876	0.378886
558	C	0.358076	0.261919	0.339804
559	H	0.363141	0.258868	0.602068
560	H	0.410252	0.257544	0.411902
561	C	0.4031	0.142612	0.632765
562	N	0.373118	0.114092	0.635222
563	C	0.358388	0.097913	0.341
564	C	0.374502	0.114519	0.381353
565	N	0.402875	0.144617	0.378876
566	C	0.419267	0.159059	0.339773
567	H	0.411018	0.154012	0.602061
568	H	0.362856	0.106838	0.411942
569	C	0.492952	0.247516	0.006957
570	C	0.475028	0.265244	0.007126
571	C	0.439566	0.247476	0.007312
572	C	0.422708	0.212349	0.007079
573	C	0.439611	0.194128	0.006829
574	C	0.475064	0.211864	0.006815
575	C	0.493339	0.300432	0.007069
576	H	0.39709	0.199518	0.007058
577	C	0.49339	0.195006	0.006849
578	H	0.481422	0.313979	0.007143
579	H	0.481499	0.169544	0.006832
580	H	0.3476	0.31368	0.673487
581	H	0.347955	0.03562	0.673842
582	C	0.374529	0.262268	0.966097
583	N	0.403036	0.260771	0.96847
584	C	0.419136	0.26211	0.674257
585	C	0.402579	0.26157	0.714675
586	N	0.372494	0.259876	0.712218
587	C	0.358075	0.261919	0.673139
588	H	0.36314	0.258868	0.935403
589	H	0.410252	0.257544	0.745233
590	C	0.4031	0.142612	0.966097
591	N	0.37312	0.114092	0.968557
592	C	0.358388	0.097913	0.674335
593	C	0.374504	0.114519	0.714685
594	N	0.402875	0.144617	0.712211
595	C	0.419267	0.159059	0.673105
596	H	0.411017	0.154012	0.935396
597	H	0.362855	0.106838	0.745277
598	C	0.492953	0.747516	0.34029
599	C	0.475028	0.765245	0.340459
600	C	0.439566	0.747476	0.340645
601	C	0.422708	0.71235	0.340412
602	C	0.43961	0.694128	0.340162
603	C	0.475064	0.711865	0.340145
604	C	0.493337	0.800431	0.340402
605	H	0.39709	0.699518	0.340392
606	C	0.49339	0.695005	0.340179
607	H	0.481421	0.813978	0.340476
608	H	0.481499	0.669545	0.340162
609	H	0.3476	0.813682	0.006818
610	H	0.347956	0.535621	0.007175
611	C	0.374531	0.762269	0.29943
612	N	0.403037	0.760772	0.301801
613	C	0.419137	0.762112	0.007589
614	C	0.402578	0.761571	0.048007
615	N	0.372493	0.759875	0.045551
616	C	0.358074	0.761918	0.006474
617	H	0.363139	0.758867	0.268735
618	H	0.410252	0.757546	0.078567
619	C	0.403099	0.642611	0.29943
620	N	0.373119	0.614093	0.301888
621	C	0.358387	0.597913	0.007667
622	C	0.374504	0.614521	0.048018
623	N	0.402876	0.644618	0.045542
624	C	0.419267	0.659059	0.00644
625	H	0.411018	0.654014	0.268728
626	H	0.362856	0.606839	0.078608
627	C	0.492952	0.747516	0.673625
628	C	0.475028	0.765245	0.673794
629	C	0.439566	0.747477	0.67398
630	C	0.422708	0.71235	0.673747
631	C	0.43961	0.694128	0.673497
632	C	0.475064	0.711865	0.67348
633	C	0.493337	0.800431	0.673737
634	H	0.39709	0.699518	0.673727
635	C	0.49339	0.695005	0.673514
636	H	0.481421	0.813978	0.673811
637	H	0.481498	0.669545	0.673497
638	H	0.3476	0.813682	0.340152
639	H	0.347956	0.535621	0.34051
640	C	0.374531	0.762269	0.632765
641	N	0.403037	0.760772	0.635135
642	C	0.419137	0.762112	0.340922
643	C	0.402578	0.761571	0.38134
644	N	0.372493	0.759875	0.378886
645	C	0.358074	0.761918	0.339804
646	H	0.363139	0.758867	0.602068
647	H	0.410252	0.757546	0.411902
648	C	0.403099	0.642611	0.632765
649	N	0.373119	0.614093	0.635222
650	C	0.358387	0.597913	0.341
651	C	0.374504	0.614521	0.381353
652	N	0.402876	0.644618	0.378876
653	C	0.419267	0.659059	0.339773
654	H	0.411018	0.654014	0.602061
655	H	0.362856	0.606839	0.411942
656	C	0.492953	0.747516	0.006957
657	C	0.475028	0.765245	0.007126
658	C	0.439566	0.747476	0.007312
659	C	0.422709	0.71235	0.007079
660	C	0.43961	0.694128	0.006829
661	C	0.475064	0.711865	0.006815
662	C	0.493337	0.800431	0.007069
663	H	0.39709	0.699518	0.007058
664	C	0.49339	0.695005	0.006849
665	H	0.481421	0.813978	0.007143
666	H	0.481499	0.669545	0.006832
667	H	0.3476	0.813682	0.673487
668	H	0.347956	0.535621	0.673842
669	C	0.374531	0.762269	0.966097
670	N	0.403037	0.760772	0.96847
671	C	0.419137	0.762112	0.674257
672	C	0.402578	0.761571	0.714675
673	N	0.372493	0.759875	0.712218
674	C	0.358074	0.761918	0.673139
675	H	0.363139	0.758867	0.935403
676	H	0.410252	0.757546	0.745233
677	C	0.403099	0.642611	0.966097
678	N	0.373119	0.614093	0.968557
679	C	0.358387	0.597913	0.674335
680	C	0.374504	0.614521	0.714685
681	N	0.402875	0.644618	0.712211
682	C	0.419267	0.659059	0.673105
683	H	0.411018	0.654014	0.935396
684	H	0.362856	0.606839	0.745277
685	C	0.528707	0.265403	0.34028
686	C	0.546609	0.301057	0.340111
687	C	0.582068	0.318771	0.340061
688	C	0.598951	0.300527	0.340253
689	C	0.582076	0.265406	0.340537
690	C	0.546621	0.247665	0.340439
691	C	0.528275	0.317912	0.340155
692	C	0.528319	0.21248	0.340402
693	H	0.62457	0.313331	0.340189
694	C	0.992953	0.247516	0.34029
695	C	0.975027	0.265244	0.340459
696	C	0.939567	0.247476	0.340645
697	C	0.922708	0.212349	0.340412
698	C	0.939609	0.194127	0.340162
699	C	0.975065	0.211864	0.340145
700	C	0.993337	0.300432	0.340402
701	H	0.897091	0.199518	0.340392
702	C	0.993391	0.195006	0.340179
703	H	0.981422	0.313979	0.340476
704	H	0.540172	0.343372	0.340115
705	H	0.981499	0.169544	0.340162
706	H	0.540229	0.198928	0.340466
707	C	0.751738	0.265047	0.006955
708	C	0.716084	0.247302	0.006788
709	C	0.698372	0.265052	0.006734
710	C	0.716627	0.300181	0.00692
711	C	0.751748	0.318415	0.007173
712	C	0.769484	0.300699	0.007116
713	C	0.699224	0.212115	0.006842
714	C	0.804669	0.317576	0.007068
715	H	0.703828	0.313	0.006883
716	C	0.76962	0.247176	0.006969
717	C	0.751885	0.211524	0.007152
718	C	0.769649	0.193827	0.007319
719	C	0.804775	0.212086	0.007111
720	C	0.823005	0.247208	0.006852
721	C	0.805274	0.264932	0.006815
722	C	0.716698	0.194652	0.007098
723	H	0.8176	0.199293	0.007109
724	C	0.822138	0.300116	0.006839
725	H	0.703147	0.169189	0.007176
726	H	0.673761	0.198556	0.006805
727	H	0.8476	0.31368	0.006818
728	H	0.818226	0.343038	0.007119
729	C	0.752097	0.488372	0.006937
730	C	0.769834	0.470457	0.006815
731	C	0.752076	0.434997	0.006798
732	C	0.716948	0.418127	0.007093
733	C	0.698719	0.435019	0.007275
734	C	0.716445	0.470472	0.007088
735	C	0.805022	0.488776	0.006856
736	C	0.699575	0.488788	0.007008
737	H	0.704129	0.392511	0.007128
738	C	0.769976	0.024124	0.006937
739	C	0.805629	0.042036	0.00713
740	C	0.823333	0.077496	0.007323
741	C	0.805078	0.094368	0.007119
742	C	0.769956	0.077479	0.006815
743	C	0.752226	0.042026	0.006778
744	C	0.822494	0.023713	0.00709
745	H	0.817874	0.119986	0.007145
746	C	0.717041	0.023714	0.006778
747	H	0.847955	0.03562	0.007175
748	H	0.818576	0.476868	0.006842
749	H	0.703482	0.035616	0.006748
750	H	0.674114	0.476888	0.007068
751	C	0.646996	0.250407	0.299319
752	N	0.618612	0.252128	0.301648
753	C	0.602457	0.250718	0.007399
754	C	0.618815	0.250909	0.047834
755	N	0.648799	0.252384	0.045384
756	C	0.663319	0.250407	0.006352
757	H	0.658436	0.253879	0.26865
758	H	0.611118	0.254859	0.078424
759	C	0.766511	0.398279	0.299364
760	N	0.764783	0.368174	0.301721
761	C	0.766437	0.353474	0.007413
762	C	0.7665	0.369768	0.047864
763	N	0.765016	0.398284	0.045584
764	C	0.76673	0.414576	0.006511
765	H	0.762855	0.406187	0.268755
766	H	0.762755	0.358183	0.078467
767	C	0.618786	0.370172	0.299296
768	N	0.648903	0.398533	0.301765
769	C	0.66366	0.41466	0.007554
770	C	0.647415	0.398187	0.047903
771	N	0.61888	0.368226	0.045407
772	C	0.602466	0.353835	0.006291
773	H	0.610852	0.35876	0.268604
774	H	0.659034	0.405833	0.078515
775	C	0.87453	0.262268	0.29943
776	N	0.903037	0.260771	0.301801
777	C	0.919137	0.26211	0.007589
778	C	0.902577	0.26157	0.048007
779	N	0.872494	0.259876	0.045551
780	C	0.858073	0.261919	0.006474
781	H	0.86314	0.258868	0.268735
782	H	0.910252	0.257544	0.078567
783	C	0.755077	0.114081	0.299476
784	N	0.756539	0.144063	0.301889
785	C	0.755011	0.158774	0.007635
786	C	0.755401	0.142629	0.048
787	N	0.757128	0.114258	0.045533
788	C	0.755256	0.097836	0.006484
789	H	0.758601	0.106182	0.268784
790	H	0.759315	0.154256	0.078598
791	C	0.9031	0.142612	0.29943
792	N	0.873118	0.114092	0.301888
793	C	0.858388	0.097913	0.007667
794	C	0.874504	0.114519	0.048018
795	N	0.902875	0.144617	0.045542
796	C	0.919267	0.159059	0.00644
797	H	0.911017	0.154012	0.268728
798	H	0.862856	0.106838	0.078608
799	C	0.528706	0.265403	0.673612
800	C	0.546609	0.301057	0.673446
801	C	0.582068	0.318771	0.673396
802	C	0.598953	0.300527	0.673588
803	C	0.582076	0.265406	0.673872
804	C	0.546621	0.247665	0.673774
805	C	0.528274	0.317912	0.673487
806	C	0.528318	0.21248	0.673737
807	H	0.624569	0.313331	0.673524
808	C	0.992952	0.247516	0.673625
809	C	0.975028	0.265244	0.673794
810	C	0.939566	0.247476	0.67398
811	C	0.922708	0.212349	0.673747
812	C	0.93961	0.194127	0.673497
813	C	0.975064	0.211864	0.67348
814	C	0.993339	0.300432	0.673737
815	H	0.897091	0.199518	0.673727
816	C	0.99339	0.195006	0.673514
817	H	0.981422	0.313979	0.673811
818	H	0.540173	0.343372	0.67345
819	H	0.981498	0.169544	0.673497
820	H	0.540228	0.198928	0.673801
821	C	0.751737	0.265047	0.34029
822	C	0.716083	0.247302	0.340121
823	C	0.698373	0.265052	0.340067
824	C	0.716626	0.300181	0.340253
825	C	0.751748	0.318415	0.340507
826	C	0.769485	0.300699	0.340449
827	C	0.699223	0.212115	0.340175
828	C	0.804671	0.317576	0.340402
829	H	0.703827	0.313	0.340216
830	C	0.769622	0.247176	0.340304
831	C	0.751886	0.211524	0.340486
832	C	0.769649	0.193827	0.340652
833	C	0.804777	0.212086	0.340446
834	C	0.823007	0.247209	0.340186
835	C	0.805275	0.264932	0.340145
836	C	0.716697	0.194652	0.340432
837	H	0.817601	0.199293	0.340442
838	C	0.822137	0.300116	0.340172
839	H	0.703146	0.16919	0.34051
840	H	0.673762	0.198556	0.340138
841	H	0.847599	0.31368	0.340152
842	H	0.818226	0.343038	0.340453
843	C	0.752096	0.488372	0.34027
844	C	0.769836	0.470457	0.340148
845	C	0.752075	0.434997	0.340128
846	C	0.71695	0.418127	0.340426
847	C	0.698718	0.435019	0.340608
848	C	0.716444	0.470472	0.340422
849	C	0.805021	0.488776	0.340189
850	C	0.699574	0.488788	0.340341
851	H	0.704129	0.392511	0.340463
852	C	0.769976	0.024125	0.34027
853	C	0.805628	0.042036	0.340463
854	C	0.823333	0.077496	0.340655
855	C	0.805078	0.094368	0.340453
856	C	0.769956	0.077479	0.340145
857	C	0.752225	0.042026	0.340108
858	C	0.822493	0.023713	0.340422
859	H	0.817874	0.119986	0.34048
860	C	0.71704	0.023714	0.340111
861	H	0.847957	0.03562	0.34051
862	H	0.818575	0.476868	0.340172
863	H	0.703481	0.035617	0.340081
864	H	0.674114	0.476888	0.340402
865	C	0.646995	0.250407	0.632654
866	N	0.618611	0.252128	0.634982
867	C	0.602456	0.250718	0.340733
868	C	0.618814	0.250909	0.381167
869	N	0.6488	0.252384	0.378717
870	C	0.66332	0.250407	0.339685
871	H	0.658437	0.253879	0.601984
872	H	0.611118	0.254859	0.411756
873	C	0.766511	0.398279	0.632698
874	N	0.764784	0.368174	0.635053
875	C	0.766436	0.353474	0.340747
876	C	0.766499	0.369768	0.381198
877	N	0.765015	0.398284	0.378916
878	C	0.76673	0.414578	0.339844
879	H	0.762855	0.406188	0.602088
880	H	0.762756	0.358183	0.4118
881	C	0.618788	0.370172	0.63263
882	N	0.648902	0.398533	0.635101
883	C	0.66366	0.41466	0.340889
884	C	0.647415	0.398187	0.381238
885	N	0.618882	0.368226	0.378741
886	C	0.602465	0.353835	0.339625
887	H	0.610851	0.35876	0.601936
888	H	0.659033	0.405833	0.411848
889	C	0.874531	0.262268	0.632765
890	N	0.903036	0.260771	0.635135
891	C	0.919136	0.26211	0.340922
892	C	0.902579	0.26157	0.38134
893	N	0.872494	0.259876	0.378886
894	C	0.858075	0.261919	0.339804
895	H	0.86314	0.258868	0.602068
896	H	0.910251	0.257544	0.411902
897	C	0.755076	0.114081	0.632809
898	N	0.756541	0.144063	0.635222
899	C	0.75501	0.158774	0.34097
900	C	0.7554	0.142629	0.381333
901	N	0.757127	0.114258	0.378866
902	C	0.755257	0.097836	0.339817
903	H	0.758603	0.106182	0.602119
904	H	0.759314	0.154256	0.411932
905	C	0.9031	0.142612	0.632765
906	N	0.87312	0.114092	0.635222
907	C	0.858387	0.097913	0.341
908	C	0.874504	0.114519	0.381353
909	N	0.902876	0.144617	0.378876
910	C	0.919266	0.159059	0.339773
911	H	0.911017	0.154012	0.602061
912	H	0.862855	0.106838	0.411942
913	C	0.528708	0.265403	0.006947
914	C	0.546608	0.301057	0.006778
915	C	0.582067	0.318771	0.006731
916	C	0.598952	0.300527	0.00692
917	C	0.582077	0.265406	0.007204
918	C	0.546622	0.247665	0.007106
919	C	0.528276	0.317912	0.006822
920	C	0.528318	0.21248	0.007068
921	H	0.624569	0.313332	0.006856
922	C	0.992954	0.247516	0.006957
923	C	0.975027	0.265244	0.007126
924	C	0.939567	0.247476	0.007312
925	C	0.922709	0.212349	0.007079
926	C	0.93961	0.194128	0.006829
927	C	0.975063	0.211864	0.006815
928	C	0.993338	0.300432	0.007069
929	H	0.89709	0.199518	0.007058
930	C	0.993392	0.195006	0.006849
931	H	0.981423	0.313979	0.007143
932	H	0.540173	0.343372	0.006785
933	H	0.981498	0.169544	0.006832
934	H	0.540227	0.198928	0.007132
935	C	0.751739	0.265047	0.673622
936	C	0.716085	0.247302	0.673456
937	C	0.698373	0.265052	0.673399
938	C	0.716627	0.300181	0.673588
939	C	0.751747	0.318415	0.673842
940	C	0.769485	0.300699	0.673784
941	C	0.699225	0.212115	0.673507
942	C	0.80467	0.317576	0.673737
943	H	0.703827	0.313	0.673551
944	C	0.769621	0.247176	0.673636
945	C	0.751886	0.211524	0.673821
946	C	0.769648	0.193827	0.673987
947	C	0.804776	0.212086	0.673777
948	C	0.823006	0.247209	0.673517
949	C	0.805274	0.264932	0.67348
950	C	0.716697	0.194652	0.673764
951	H	0.817601	0.199293	0.673777
952	C	0.822139	0.300116	0.673507
953	H	0.703148	0.16919	0.673845
954	H	0.673761	0.198556	0.673473
955	H	0.847601	0.31368	0.673487
956	H	0.818225	0.343038	0.673788
957	C	0.752098	0.488372	0.673605
958	C	0.769835	0.470457	0.673483
959	C	0.752077	0.434997	0.673463
960	C	0.716949	0.418127	0.673761
961	C	0.69872	0.435019	0.673943
962	C	0.716444	0.470472	0.673757
963	C	0.805023	0.488776	0.673521
964	C	0.699576	0.488788	0.673676
965	H	0.704128	0.392511	0.673794
966	C	0.769977	0.024125	0.673602
967	C	0.80563	0.042036	0.673798
968	C	0.823334	0.077496	0.67399
969	C	0.805077	0.094368	0.673788
970	C	0.769957	0.077479	0.67348
971	C	0.752226	0.042026	0.673443
972	C	0.822493	0.023713	0.673757
973	H	0.817873	0.119986	0.673811
974	C	0.71704	0.023714	0.673443
975	H	0.847956	0.03562	0.673842
976	H	0.818577	0.476868	0.673507
977	H	0.703481	0.035617	0.673416
978	H	0.674113	0.476888	0.673737
979	C	0.646995	0.250407	0.965986
980	N	0.618613	0.252128	0.968317
981	C	0.602458	0.250718	0.674068
982	C	0.618816	0.250909	0.714502
983	N	0.6488	0.252384	0.712052
984	C	0.66332	0.250407	0.673017
985	H	0.658437	0.253879	0.935319
986	H	0.611119	0.254859	0.745092
987	C	0.766512	0.398279	0.966033
988	N	0.764784	0.368174	0.968388
989	C	0.766436	0.353474	0.674082
990	C	0.766499	0.369768	0.714533
991	N	0.765017	0.398284	0.712251
992	C	0.766728	0.414576	0.673179
993	H	0.762856	0.406188	0.935423
994	H	0.762756	0.358183	0.745135
995	C	0.618787	0.370172	0.965965
996	N	0.648902	0.398533	0.968432
997	C	0.663659	0.41466	0.674224
998	C	0.647414	0.398187	0.71457
999	N	0.618881	0.368226	0.712076
1000	C	0.602464	0.353835	0.672956
1001	H	0.61085	0.35876	0.935271
1002	H	0.659035	0.405833	0.745183
1003	C	0.874531	0.262268	0.966097
1004	N	0.903036	0.260771	0.96847
1005	C	0.919135	0.26211	0.674257
1006	C	0.902578	0.26157	0.714675
1007	N	0.872493	0.259876	0.712218
1008	C	0.858074	0.261919	0.673139
1009	H	0.863139	0.258868	0.935403
1010	H	0.910253	0.257544	0.745233
1011	C	0.755076	0.11408	0.966144
1012	N	0.75654	0.144062	0.968557
1013	C	0.75501	0.158774	0.674301
1014	C	0.7554	0.142629	0.714668
1015	N	0.757127	0.114258	0.712201
1016	C	0.755256	0.097836	0.673152
1017	H	0.758602	0.106182	0.93545
1018	H	0.759315	0.154256	0.745267
1019	C	0.903099	0.142612	0.966097
1020	N	0.873119	0.114092	0.968557
1021	C	0.858387	0.097913	0.674335
1022	C	0.874503	0.114519	0.714685
1023	N	0.902876	0.144617	0.712211
1024	C	0.919268	0.159059	0.673105
1025	H	0.911018	0.154012	0.935396
1026	H	0.862855	0.106838	0.745277
1027	C	0.528707	0.765404	0.34028
1028	C	0.546607	0.801056	0.340111
1029	C	0.582068	0.818773	0.340061
1030	C	0.598952	0.800528	0.340253
1031	C	0.582075	0.765404	0.340537
1032	C	0.546621	0.747666	0.340439
1033	C	0.528274	0.817911	0.340155
1034	C	0.528318	0.71248	0.340402
1035	H	0.62457	0.813333	0.340189
1036	C	0.992952	0.747516	0.34029
1037	C	0.975028	0.765245	0.340459
1038	C	0.939566	0.747476	0.340645
1039	C	0.922708	0.71235	0.340412
1040	C	0.93961	0.694128	0.340162
1041	C	0.975064	0.711865	0.340145
1042	C	0.993338	0.800431	0.340402
1043	H	0.89709	0.699518	0.340392
1044	C	0.993389	0.695005	0.340179
1045	H	0.981421	0.813978	0.340476
1046	H	0.540173	0.843373	0.340115
1047	H	0.981498	0.669545	0.340162
1048	H	0.540228	0.698928	0.340466
1049	C	0.751736	0.765046	0.006955
1050	C	0.716083	0.747302	0.006788
1051	C	0.698374	0.765053	0.006734
1052	C	0.716625	0.80018	0.00692
1053	C	0.751748	0.818416	0.007173
1054	C	0.769484	0.800698	0.007116
1055	C	0.699222	0.712114	0.006842
1056	C	0.804669	0.817575	0.007068
1057	H	0.703827	0.812999	0.006883
1058	C	0.769622	0.747178	0.006969
1059	C	0.751887	0.711526	0.007153
1060	C	0.769648	0.693827	0.007319
1061	C	0.804776	0.712086	0.007111
1062	C	0.823007	0.74721	0.006852
1063	C	0.805274	0.764931	0.006815
1064	C	0.716696	0.694651	0.007098
1065	H	0.817601	0.699294	0.007109
1066	C	0.822138	0.800117	0.006839
1067	H	0.703146	0.669189	0.007176
1068	H	0.673762	0.698557	0.006805
1069	H	0.8476	0.813682	0.006818
1070	H	0.818225	0.843037	0.007119
1071	C	0.752096	0.988371	0.006937
1072	C	0.769836	0.970458	0.006815
1073	C	0.752076	0.934998	0.006798
1074	C	0.71695	0.918129	0.007093
1075	C	0.698719	0.935018	0.007274
1076	C	0.716445	0.970473	0.007088
1077	C	0.805024	0.988777	0.006856
1078	C	0.699575	0.988787	0.007008
1079	H	0.704128	0.892509	0.007127
1080	C	0.769975	0.524124	0.006937
1081	C	0.805628	0.542037	0.00713
1082	C	0.823332	0.577497	0.007323
1083	C	0.805078	0.594369	0.007119
1084	C	0.769956	0.577479	0.006815
1085	C	0.752225	0.542027	0.006778
1086	C	0.822493	0.523713	0.00709
1087	H	0.817873	0.619985	0.007145
1088	C	0.717041	0.523715	0.006778
1089	H	0.847957	0.535621	0.007175
1090	H	0.818575	0.976867	0.006842
1091	H	0.703481	0.535616	0.006748
1092	H	0.674113	0.976887	0.007068
1093	C	0.646994	0.750406	0.299319
1094	N	0.61861	0.752127	0.301648
1095	C	0.602455	0.750717	0.007399
1096	C	0.618815	0.750911	0.047834
1097	N	0.648799	0.752383	0.045384
1098	C	0.663321	0.750408	0.006352
1099	H	0.658438	0.753881	0.26865
1100	H	0.611117	0.754858	0.078424
1101	C	0.76651	0.898278	0.299364
1102	N	0.764784	0.868176	0.301721
1103	C	0.766435	0.853473	0.007413
1104	C	0.766499	0.869769	0.047864
1105	N	0.765018	0.898285	0.045584
1106	C	0.766729	0.914577	0.006511
1107	H	0.762855	0.906189	0.268755
1108	H	0.762755	0.858182	0.078467
1109	C	0.618787	0.870173	0.299296
1110	N	0.648901	0.898532	0.301765
1111	C	0.66366	0.914662	0.007554
1112	C	0.647415	0.898188	0.047903
1113	N	0.618881	0.868227	0.045407
1114	C	0.602465	0.853837	0.006291
1115	H	0.610851	0.858761	0.268604
1116	H	0.659035	0.905834	0.078515
1117	C	0.874532	0.762269	0.29943
1118	N	0.903036	0.760772	0.301801
1119	C	0.919136	0.762112	0.007589
1120	C	0.902579	0.761571	0.048007
1121	N	0.872493	0.759875	0.045551
1122	C	0.858074	0.761918	0.006474
1123	H	0.863139	0.758867	0.268735
1124	H	0.910251	0.757546	0.078567
1125	C	0.755076	0.61408	0.299476
1126	N	0.756541	0.644063	0.301889
1127	C	0.75501	0.658773	0.007635
1128	C	0.755399	0.642628	0.048
1129	N	0.757127	0.614259	0.045533
1130	C	0.755257	0.597836	0.006484
1131	H	0.758603	0.606183	0.268784
1132	H	0.759316	0.654257	0.078598
1133	C	0.903099	0.642611	0.29943
1134	N	0.873119	0.614093	0.301888
1135	C	0.858387	0.597913	0.007667
1136	C	0.874504	0.614521	0.048018
1137	N	0.902876	0.644618	0.045542
1138	C	0.919266	0.659059	0.00644
1139	H	0.911017	0.654014	0.268728
1140	H	0.862855	0.606839	0.078608
1141	C	0.528707	0.765405	0.673612
1142	C	0.546607	0.801056	0.673446
1143	C	0.582068	0.818773	0.673396
1144	C	0.598952	0.800528	0.673588
1145	C	0.582075	0.765405	0.673872
1146	C	0.546621	0.747666	0.673774
1147	C	0.528274	0.817911	0.673487
1148	C	0.528318	0.71248	0.673737
1149	H	0.624569	0.813333	0.673524
1150	C	0.992953	0.747516	0.673625
1151	C	0.975028	0.765245	0.673794
1152	C	0.939565	0.747477	0.67398
1153	C	0.922709	0.71235	0.673747
1154	C	0.93961	0.694128	0.673497
1155	C	0.975063	0.711865	0.67348
1156	C	0.993337	0.800431	0.673737
1157	H	0.89709	0.699518	0.673727
1158	C	0.993391	0.695005	0.673514
1159	H	0.981422	0.813978	0.673811
1160	H	0.540173	0.843373	0.67345
1161	H	0.981498	0.669545	0.673497
1162	H	0.540228	0.698928	0.673801
1163	C	0.751738	0.765046	0.34029
1164	C	0.716084	0.747302	0.340121
1165	C	0.698373	0.765053	0.340067
1166	C	0.716626	0.80018	0.340253
1167	C	0.751747	0.818416	0.340507
1168	C	0.769484	0.800698	0.340449
1169	C	0.699225	0.712116	0.340175
1170	C	0.804669	0.817575	0.340402
1171	H	0.703828	0.812999	0.340216
1172	C	0.769621	0.747178	0.340304
1173	C	0.751886	0.711526	0.340486
1174	C	0.769648	0.693827	0.340652
1175	C	0.804776	0.712086	0.340446
1176	C	0.823006	0.74721	0.340186
1177	C	0.805273	0.764931	0.340145
1178	C	0.716696	0.694651	0.340432
1179	H	0.817601	0.699294	0.340442
1180	C	0.822139	0.800117	0.340172
1181	H	0.703147	0.669189	0.34051
1182	H	0.673761	0.698557	0.340138
1183	H	0.847601	0.813682	0.340152
1184	H	0.818224	0.843037	0.340453
1185	C	0.752097	0.988371	0.34027
1186	C	0.769835	0.970458	0.340148
1187	C	0.752077	0.934998	0.340128
1188	C	0.71695	0.918129	0.340426
1189	C	0.69872	0.935021	0.340608
1190	C	0.716444	0.970473	0.340422
1191	C	0.805023	0.988777	0.340189
1192	C	0.699574	0.988787	0.340341
1193	H	0.704127	0.892509	0.340463
1194	C	0.769977	0.524126	0.34027
1195	C	0.80563	0.542037	0.340463
1196	C	0.823334	0.577497	0.340655
1197	C	0.805077	0.594369	0.340453
1198	C	0.769957	0.577479	0.340145
1199	C	0.752226	0.542027	0.340108
1200	C	0.822492	0.523713	0.340422
1201	H	0.817872	0.619985	0.34048
1202	C	0.71704	0.523715	0.340111
1203	H	0.847956	0.535621	0.34051
1204	H	0.818577	0.976869	0.340172
1205	H	0.703481	0.535618	0.340081
1206	H	0.674112	0.976887	0.340402
1207	C	0.646993	0.750406	0.632654
1208	N	0.618612	0.752127	0.634982
1209	C	0.602457	0.750717	0.340733
1210	C	0.618816	0.750911	0.381167
1211	N	0.648799	0.752383	0.378717
1212	C	0.66332	0.750408	0.339685
1213	H	0.658437	0.753881	0.601984
1214	H	0.611118	0.754858	0.411756
1215	C	0.766509	0.898278	0.632698
1216	N	0.764784	0.868176	0.635053
1217	C	0.766435	0.853473	0.340747
1218	C	0.766499	0.869769	0.381198
1219	N	0.765017	0.898285	0.378916
1220	C	0.766728	0.914577	0.339844
1221	H	0.762856	0.906189	0.602088
1222	H	0.762755	0.858182	0.4118
1223	C	0.618787	0.870173	0.63263
1224	N	0.648901	0.898532	0.635101
1225	C	0.66366	0.914662	0.340889
1226	C	0.647415	0.898188	0.381235
1227	N	0.618881	0.868227	0.378741
1228	C	0.602465	0.853837	0.339625
1229	H	0.610851	0.858761	0.601936
1230	H	0.659035	0.905834	0.411848
1231	C	0.874531	0.762269	0.632765
1232	N	0.903036	0.760772	0.635135
1233	C	0.919136	0.762112	0.340922
1234	C	0.902578	0.761571	0.38134
1235	N	0.872492	0.759875	0.378886
1236	C	0.858073	0.761918	0.339804
1237	H	0.863138	0.758867	0.602068
1238	H	0.910253	0.757546	0.411902
1239	C	0.755075	0.61408	0.632809
1240	N	0.75654	0.644063	0.635222
1241	C	0.75501	0.658775	0.34097
1242	C	0.755399	0.642628	0.381333
1243	N	0.757127	0.614259	0.378866
1244	C	0.755256	0.597836	0.339817
1245	H	0.758602	0.606183	0.602119
1246	H	0.759315	0.654257	0.411932
1247	C	0.903098	0.642611	0.632765
1248	N	0.873119	0.614093	0.635222
1249	C	0.858386	0.597913	0.341
1250	C	0.874503	0.614521	0.381353
1251	N	0.902876	0.644618	0.378876
1252	C	0.919268	0.659059	0.339773
1253	H	0.911019	0.654014	0.602061
1254	H	0.862855	0.606839	0.411942
1255	C	0.528707	0.765405	0.006947
1256	C	0.546607	0.801056	0.006778
1257	C	0.582069	0.818773	0.006731
1258	C	0.598952	0.800528	0.00692
1259	C	0.582075	0.765404	0.007204
1260	C	0.546621	0.747666	0.007106
1261	C	0.528274	0.817911	0.006822
1262	C	0.528318	0.71248	0.007068
1263	H	0.624571	0.813333	0.006856
1264	C	0.992953	0.747516	0.006957
1265	C	0.975027	0.765245	0.007126
1266	C	0.939566	0.747476	0.007312
1267	C	0.922708	0.71235	0.007079
1268	C	0.939609	0.694128	0.006829
1269	C	0.975064	0.711865	0.006815
1270	C	0.993336	0.800431	0.007069
1271	H	0.897091	0.699518	0.007058
1272	C	0.99339	0.695005	0.006849
1273	H	0.981421	0.813978	0.007143
1274	H	0.540173	0.843373	0.006785
1275	H	0.981499	0.669545	0.006832
1276	H	0.540228	0.698928	0.007132
1277	C	0.751737	0.765046	0.673622
1278	C	0.716084	0.747302	0.673456
1279	C	0.698374	0.765053	0.673399
1280	C	0.716626	0.80018	0.673588
1281	C	0.751749	0.818416	0.673842
1282	C	0.769483	0.800698	0.673784
1283	C	0.699224	0.712116	0.673507
1284	C	0.804668	0.817575	0.673737
1285	H	0.703827	0.812999	0.673551
1286	C	0.769621	0.747178	0.673636
1287	C	0.751886	0.711526	0.673821
1288	C	0.769647	0.693827	0.673987
1289	C	0.804775	0.712086	0.673777
1290	C	0.823008	0.74721	0.673517
1291	C	0.805275	0.764931	0.67348
1292	C	0.716697	0.694651	0.673764
1293	H	0.8176	0.699294	0.673777
1294	C	0.822139	0.800117	0.673507
1295	H	0.703147	0.669189	0.673845
1296	H	0.673761	0.698557	0.673473
1297	H	0.8476	0.813682	0.673487
1298	H	0.818226	0.843037	0.673788
1299	C	0.752096	0.988371	0.673605
1300	C	0.769835	0.970458	0.673483
1301	C	0.752077	0.934998	0.673463
1302	C	0.716949	0.918129	0.673761
1303	C	0.698719	0.935021	0.673943
1304	C	0.716443	0.970473	0.673757
1305	C	0.805023	0.988777	0.673521
1306	C	0.699574	0.988787	0.673676
1307	H	0.704127	0.892509	0.673794
1308	C	0.769977	0.524126	0.673602
1309	C	0.805629	0.542037	0.673798
1310	C	0.823333	0.577497	0.67399
1311	C	0.805079	0.594369	0.673788
1312	C	0.769956	0.577479	0.67348
1313	C	0.752226	0.542027	0.673443
1314	C	0.822494	0.523713	0.673757
1315	H	0.817872	0.619985	0.673811
1316	C	0.717041	0.523715	0.673443
1317	H	0.847956	0.535621	0.673842
1318	H	0.818577	0.976869	0.673507
1319	H	0.703481	0.535618	0.673416
1320	H	0.674112	0.976887	0.673737
1321	C	0.646993	0.750406	0.965986
1322	N	0.618611	0.752127	0.968317
1323	C	0.602456	0.750717	0.674068
1324	C	0.618815	0.750911	0.714502
1325	N	0.648798	0.752383	0.712052
1326	C	0.663319	0.750408	0.673017
1327	H	0.658436	0.753881	0.935319
1328	H	0.611118	0.754858	0.745092
1329	C	0.766511	0.898278	0.966033
1330	N	0.764783	0.868176	0.968388
1331	C	0.766436	0.853473	0.674082
1332	C	0.7665	0.869769	0.714533
1333	N	0.765016	0.898285	0.712251
1334	C	0.76673	0.914577	0.673179
1335	H	0.762856	0.906189	0.935423
1336	H	0.762754	0.858182	0.745135
1337	C	0.618787	0.870173	0.965965
1338	N	0.648902	0.898532	0.968432
1339	C	0.66366	0.914662	0.674224
1340	C	0.647415	0.898188	0.71457
1341	N	0.618881	0.868227	0.712076
1342	C	0.602465	0.853837	0.672956
1343	H	0.610851	0.858761	0.935271
1344	H	0.659035	0.905834	0.745183
1345	C	0.87453	0.762269	0.966097
1346	N	0.903037	0.760772	0.96847
1347	C	0.919137	0.762112	0.674257
1348	C	0.902578	0.761571	0.714675
1349	N	0.872494	0.759875	0.712218
1350	C	0.858075	0.761918	0.673139
1351	H	0.863138	0.758867	0.935403
1352	H	0.910252	0.757546	0.745233
1353	C	0.755077	0.61408	0.966144
1354	N	0.756539	0.644063	0.968557
1355	C	0.755011	0.658773	0.674301
1356	C	0.7554	0.642628	0.714668
1357	N	0.757128	0.614259	0.712201
1358	C	0.755255	0.597836	0.673152
1359	H	0.758601	0.606183	0.93545
1360	H	0.759315	0.654257	0.745267
1361	C	0.9031	0.642611	0.966097
1362	N	0.873118	0.614093	0.968557
1363	C	0.858388	0.597913	0.674335
1364	C	0.874503	0.614521	0.714685
1365	N	0.902875	0.644618	0.712211
1366	C	0.919267	0.659059	0.673105
1367	H	0.911018	0.654014	0.935396
1368	H	0.862856	0.606839	0.745277
