data_C648H504N96_2018-02-15_10:40:59
#******************************************
#
# CIF file created by Zeo++
# Zeo++ is an open source package to
# analyze microporous materials
#
#*******************************************

_cell_length_a		50.1867   
_cell_length_b		50.1867   
_cell_length_c		29.1524   
_cell_angle_alpha		90   
_cell_angle_beta		90   
_cell_angle_gamma		120   

_symmetry_space_group_name_H-M		'P1'
_symmetry_Int_Tables_number		1
_symmetry_cell_setting		Monoclinic

loop_
_symmetry_equiv_pos_as_xyz
'+x,+y,+z'

loop_
_atom_site_label
_atom_site_type_symbol
_atom_site_fract_x
_atom_site_fract_y
_atom_site_fract_z
1	N	0.188467	0.347887	0.015202
2	C	0.204718	0.330978	0.016293
3	C	0.205359	0.381108	0.015961
4	C	0.155269	0.331358	0.016432
5	C	0.137565	0.312105	0.979842
6	C	0.104976	0.295886	0.98097
7	C	0.088184	0.297867	0.018775
8	C	0.106179	0.317939	0.054712
9	C	0.138778	0.334015	0.053804
10	C	0.212608	0.322426	0.058117
11	C	0.228905	0.306145	0.059122
12	C	0.237512	0.296705	0.018495
13	C	0.229786	0.305805	0.976676
14	C	0.213879	0.322495	0.975557
15	C	0.224301	0.397764	0.053446
16	C	0.240707	0.430329	0.054254
17	C	0.238641	0.448186	0.018148
18	C	0.22002	0.431296	0.980257
19	C	0.203745	0.398679	0.979238
20	H	0.235312	0.302172	0.090398
21	H	0.206835	0.328491	0.088424
22	H	0.208818	0.328397	0.944531
23	H	0.235443	0.29997	0.946047
24	H	0.148459	0.309744	0.951827
25	H	0.093461	0.282038	0.953703
26	H	0.226502	0.38614	0.0806
27	H	0.255068	0.440888	0.081312
28	H	0.217696	0.44276	0.952914
29	H	0.19042	0.387633	0.951333
30	H	0.150608	0.348179	0.080594
31	H	0.095702	0.321963	0.08165
32	N	0.355145	0.18119	0.012755
33	C	0.338893	0.198098	0.011668
34	C	0.338255	0.147969	0.011993
35	C	0.388344	0.197723	0.01152
36	C	0.40605	0.216975	0.048108
37	C	0.43864	0.233189	0.046978
38	C	0.455429	0.231208	0.00917
39	C	0.437431	0.211136	0.973235
40	C	0.404832	0.195067	0.974144
41	C	0.330992	0.206641	0.969846
42	C	0.31468	0.222907	0.968844
43	C	0.306109	0.232382	0.009472
44	C	0.313833	0.223277	0.05129
45	C	0.329736	0.206584	0.052406
46	C	0.319318	0.131314	0.974508
47	C	0.302911	0.098747	0.973698
48	C	0.304982	0.080892	0.009805
49	C	0.323599	0.097783	0.047696
50	C	0.339872	0.130399	0.048716
51	H	0.308294	0.226903	0.937571
52	H	0.336763	0.200575	0.939536
53	H	0.334804	0.200687	0.083431
54	H	0.308183	0.229119	0.081922
55	H	0.395159	0.219334	0.076128
56	H	0.450157	0.247038	0.074244
57	H	0.317109	0.142937	0.947357
58	H	0.288548	0.08819	0.946644
59	H	0.325923	0.086319	0.075037
60	H	0.353196	0.141446	0.076625
61	H	0.393	0.180895	0.947361
62	H	0.447906	0.207108	0.946297
63	C	0.317497	0.286941	0.276459
64	C	0.293845	0.273557	0.312845
65	H	0.310565	0.271521	0.247036
66	H	0.339623	0.290983	0.289352
67	H	0.32055	0.308939	0.264526
68	N	0.276251	0.287058	0.319271
69	C	0.254184	0.279889	0.018548
70	C	0.249761	0.255512	0.048448
71	C	0.226131	0.242148	0.084867
72	H	0.233086	0.25758	0.114279
73	H	0.223077	0.220152	0.096807
74	H	0.204	0.238111	0.072004
75	N	0.267362	0.242017	0.042032
76	C	0.289425	0.249184	0.342751
77	C	0.299806	0.038631	0.260001
78	C	0.285222	0.027819	0.305456
79	H	0.298852	0.019777	0.23994
80	H	0.323943	0.056207	0.263992
81	H	0.287838	0.048015	0.240583
82	N	0.26914	0.496666	0.312161
83	C	0.255263	0.48161	0.018393
84	C	0.258396	0.501258	0.055829
85	C	0.243812	0.490447	0.101284
86	H	0.219676	0.472869	0.097293
87	H	0.244766	0.5093	0.121343
88	H	0.25578	0.481064	0.120703
89	N	0.27448	0.032412	0.049124
90	C	0.288356	0.047468	0.342892
91	C	0.498072	0.267501	0.259195
92	C	0.50869	0.264218	0.305083
93	H	0.517011	0.285178	0.238987
94	H	0.480482	0.274102	0.26244
95	H	0.488765	0.245938	0.240342
96	N	0.039812	0.279472	0.312189
97	C	0.054737	0.281115	0.018792
98	C	0.034924	0.264876	0.056207
99	C	0.045538	0.261567	0.102084
100	H	0.063117	0.254952	0.098818
101	H	0.026596	0.24389	0.122286
102	H	0.054858	0.283124	0.120954
103	N	0.503802	0.249608	0.049091
104	C	0.488876	0.247949	0.342482
105	N	0.188467	0.347887	0.348534
106	C	0.204718	0.330978	0.349625
107	C	0.205359	0.381108	0.349292
108	C	0.155269	0.331358	0.349766
109	C	0.137565	0.312105	0.313177
110	C	0.104976	0.295886	0.314303
111	C	0.088184	0.297867	0.352109
112	C	0.106179	0.317939	0.388044
113	C	0.138778	0.334015	0.387135
114	C	0.212608	0.322426	0.39145
115	C	0.228905	0.306145	0.392455
116	C	0.237512	0.296705	0.351827
117	C	0.229786	0.305805	0.310011
118	C	0.213879	0.322495	0.308892
119	C	0.224301	0.397764	0.386778
120	C	0.240707	0.430329	0.387588
121	C	0.238641	0.448186	0.351481
122	C	0.22002	0.431296	0.313591
123	C	0.203745	0.398679	0.312573
124	H	0.235312	0.302172	0.423729
125	H	0.206835	0.328491	0.421757
126	H	0.208818	0.328397	0.277866
127	H	0.235443	0.29997	0.27938
128	H	0.148459	0.309744	0.285161
129	H	0.093461	0.282038	0.287038
130	H	0.226502	0.38614	0.413932
131	H	0.255068	0.440888	0.414646
132	H	0.217696	0.44276	0.28625
133	H	0.19042	0.387633	0.284665
134	H	0.150608	0.348179	0.413925
135	H	0.095702	0.321963	0.414982
136	N	0.355145	0.18119	0.346092
137	C	0.338893	0.198098	0.345001
138	C	0.338255	0.147969	0.345327
139	C	0.388344	0.197723	0.344854
140	C	0.40605	0.216975	0.381441
141	C	0.43864	0.233189	0.380312
142	C	0.455429	0.231208	0.342503
143	C	0.437431	0.211136	0.30657
144	C	0.404832	0.195067	0.307477
145	C	0.330992	0.206641	0.30318
146	C	0.31468	0.222907	0.30218
147	C	0.306109	0.232382	0.342808
148	C	0.313833	0.223277	0.384624
149	C	0.329736	0.206584	0.385739
150	C	0.319318	0.131314	0.307841
151	C	0.302911	0.098747	0.307034
152	C	0.304982	0.080892	0.343139
153	C	0.323599	0.097783	0.381029
154	C	0.339872	0.130399	0.382048
155	H	0.308294	0.226903	0.270904
156	H	0.336763	0.200575	0.272871
157	H	0.334804	0.200687	0.416766
158	H	0.308183	0.229119	0.415256
159	H	0.395159	0.219334	0.409459
160	H	0.450157	0.247038	0.407576
161	H	0.317109	0.142937	0.280692
162	H	0.288548	0.08819	0.279978
163	H	0.325923	0.086319	0.408372
164	H	0.353196	0.141446	0.409956
165	H	0.393	0.180895	0.280695
166	H	0.447906	0.207108	0.279633
167	C	0.317497	0.286941	0.609793
168	C	0.293845	0.273557	0.646177
169	H	0.310565	0.271521	0.580368
170	H	0.339623	0.290983	0.622684
171	H	0.32055	0.308939	0.597859
172	N	0.276251	0.287058	0.652602
173	C	0.254184	0.279889	0.351879
174	C	0.249761	0.255512	0.38178
175	C	0.226131	0.242148	0.418199
176	H	0.233086	0.25758	0.44761
177	H	0.223077	0.220152	0.43014
178	H	0.204	0.238111	0.405336
179	N	0.267362	0.242017	0.375366
180	C	0.289425	0.249184	0.676082
181	C	0.299806	0.038631	0.593334
182	C	0.285222	0.027819	0.638789
183	H	0.298852	0.019777	0.573274
184	H	0.323943	0.056207	0.597324
185	H	0.287838	0.048015	0.573916
186	N	0.26914	0.496666	0.645495
187	C	0.255263	0.48161	0.351728
188	C	0.258396	0.501258	0.389162
189	C	0.243812	0.490447	0.434617
190	H	0.219676	0.472869	0.430627
191	H	0.244766	0.5093	0.454677
192	H	0.25578	0.481064	0.454035
193	N	0.27448	0.032412	0.382456
194	C	0.288356	0.047468	0.676223
195	C	0.498072	0.267501	0.592528
196	C	0.50869	0.264218	0.638415
197	H	0.517011	0.285178	0.572321
198	H	0.480482	0.274102	0.595773
199	H	0.488765	0.245938	0.573676
200	N	0.039812	0.279472	0.645522
201	C	0.054737	0.281115	0.352126
202	C	0.034924	0.264876	0.38954
203	C	0.045538	0.261567	0.435416
204	H	0.063117	0.254952	0.43215
205	H	0.026596	0.24389	0.45562
206	H	0.054858	0.283124	0.454286
207	N	0.503802	0.249608	0.382425
208	C	0.488876	0.247949	0.675815
209	N	0.188467	0.347887	0.681866
210	C	0.204718	0.330978	0.68296
211	C	0.205359	0.381108	0.682627
212	C	0.155269	0.331358	0.683097
213	C	0.137565	0.312105	0.64651
214	C	0.104976	0.295886	0.647635
215	C	0.088184	0.297867	0.68544
216	C	0.106179	0.317939	0.721379
217	C	0.138778	0.334015	0.72047
218	C	0.212608	0.322426	0.724782
219	C	0.228905	0.306145	0.725787
220	C	0.237512	0.296705	0.685162
221	C	0.229786	0.305805	0.643344
222	C	0.213879	0.322495	0.642226
223	C	0.224301	0.397764	0.720113
224	C	0.240707	0.430329	0.720919
225	C	0.238641	0.448186	0.684812
226	C	0.22002	0.431296	0.646925
227	C	0.203745	0.398679	0.645906
228	H	0.235312	0.302172	0.757064
229	H	0.206835	0.328491	0.755091
230	H	0.208818	0.328397	0.611199
231	H	0.235443	0.29997	0.612712
232	H	0.148459	0.309744	0.618495
233	H	0.093461	0.282038	0.620372
234	H	0.226502	0.38614	0.747267
235	H	0.255068	0.440888	0.747977
236	H	0.217696	0.44276	0.619583
237	H	0.19042	0.387633	0.617998
238	H	0.150608	0.348179	0.74726
239	H	0.095702	0.321963	0.748317
240	N	0.355145	0.18119	0.679423
241	C	0.338893	0.198098	0.678336
242	C	0.338255	0.147969	0.678662
243	C	0.388344	0.197723	0.678185
244	C	0.40605	0.216975	0.714772
245	C	0.43864	0.233189	0.713644
246	C	0.455429	0.231208	0.675835
247	C	0.437431	0.211136	0.639904
248	C	0.404832	0.195067	0.640809
249	C	0.330992	0.206641	0.636514
250	C	0.31468	0.222907	0.635513
251	C	0.306109	0.232382	0.676141
252	C	0.313833	0.223277	0.717956
253	C	0.329736	0.206584	0.71907
254	C	0.319318	0.131314	0.641173
255	C	0.302911	0.098747	0.640367
256	C	0.304982	0.080892	0.67647
257	C	0.323599	0.097783	0.714361
258	C	0.339872	0.130399	0.715383
259	H	0.308294	0.226903	0.604236
260	H	0.336763	0.200575	0.606205
261	H	0.334804	0.200687	0.750097
262	H	0.308183	0.229119	0.748588
263	H	0.395159	0.219334	0.742794
264	H	0.450157	0.247038	0.740911
265	H	0.317109	0.142937	0.614026
266	H	0.288548	0.08819	0.613312
267	H	0.325923	0.086319	0.741703
268	H	0.353196	0.141446	0.743291
269	H	0.393	0.180895	0.614029
270	H	0.447906	0.207108	0.612966
271	C	0.317497	0.286941	0.943124
272	C	0.293845	0.273557	0.979512
273	H	0.310565	0.271521	0.913703
274	H	0.339623	0.290983	0.956019
275	H	0.32055	0.308939	0.93119
276	N	0.276251	0.287058	0.985937
277	C	0.254184	0.279889	0.685214
278	C	0.249761	0.255512	0.715115
279	C	0.226131	0.242148	0.751534
280	H	0.233086	0.25758	0.780945
281	H	0.223077	0.220152	0.763472
282	H	0.204	0.238111	0.738671
283	N	0.267362	0.242017	0.708697
284	C	0.289425	0.249184	0.009417
285	C	0.299806	0.038631	0.926666
286	C	0.285222	0.027819	0.97212
287	H	0.298852	0.019777	0.906606
288	H	0.323943	0.056207	0.930659
289	H	0.287838	0.048015	0.907247
290	N	0.26914	0.496666	0.978826
291	C	0.255263	0.48161	0.685059
292	C	0.258396	0.501258	0.722494
293	C	0.243812	0.490447	0.767948
294	H	0.219676	0.472869	0.763959
295	H	0.244766	0.5093	0.788008
296	H	0.25578	0.481064	0.78737
297	N	0.27448	0.032412	0.715791
298	C	0.288356	0.047468	0.009558
299	C	0.498072	0.267501	0.92586
300	C	0.50869	0.264218	0.97175
301	H	0.517011	0.285178	0.905652
302	H	0.480482	0.274102	0.929105
303	H	0.488765	0.245938	0.907007
304	N	0.039812	0.279472	0.978854
305	C	0.054737	0.281115	0.685457
306	C	0.034924	0.264876	0.722871
307	C	0.045538	0.261567	0.768751
308	H	0.063117	0.254952	0.765485
309	H	0.026596	0.24389	0.788951
310	H	0.054858	0.283124	0.787621
311	N	0.503802	0.249608	0.715757
312	C	0.488876	0.247949	0.00915
313	N	0.188466	0.847887	0.015202
314	C	0.204717	0.830978	0.016293
315	C	0.205359	0.881108	0.015961
316	C	0.155267	0.831355	0.016432
317	C	0.137564	0.812104	0.979842
318	C	0.104974	0.795886	0.98097
319	C	0.088183	0.797867	0.018775
320	C	0.106179	0.817939	0.054712
321	C	0.138776	0.834013	0.053803
322	C	0.212607	0.822426	0.058117
323	C	0.228905	0.806145	0.059122
324	C	0.237511	0.796703	0.018495
325	C	0.229785	0.805805	0.976676
326	C	0.213879	0.822495	0.975557
327	C	0.224301	0.897764	0.053446
328	C	0.240706	0.930329	0.054254
329	C	0.238641	0.948186	0.018148
330	C	0.220018	0.931295	0.980257
331	C	0.203744	0.898679	0.979238
332	H	0.235311	0.802172	0.090398
333	H	0.206835	0.828491	0.088424
334	H	0.208816	0.828396	0.944531
335	H	0.235443	0.79997	0.946047
336	H	0.148459	0.809744	0.951827
337	H	0.093461	0.782038	0.953703
338	H	0.226501	0.886138	0.080599
339	H	0.255069	0.940888	0.081311
340	H	0.217693	0.942758	0.952918
341	H	0.190419	0.887631	0.951333
342	H	0.150608	0.848179	0.080593
343	H	0.095701	0.821961	0.08165
344	N	0.355145	0.681189	0.012755
345	C	0.338892	0.698097	0.011668
346	C	0.338255	0.647967	0.011993
347	C	0.388343	0.697722	0.01152
348	C	0.40605	0.716975	0.048108
349	C	0.438638	0.733189	0.046978
350	C	0.455428	0.731208	0.00917
351	C	0.437431	0.711136	0.973235
352	C	0.404832	0.695067	0.974144
353	C	0.330992	0.70664	0.969846
354	C	0.31468	0.722907	0.968844
355	C	0.306108	0.732381	0.009472
356	C	0.313832	0.723275	0.05129
357	C	0.329736	0.706583	0.052406
358	C	0.319318	0.631314	0.974508
359	C	0.30291	0.598746	0.973698
360	C	0.304981	0.580892	0.009805
361	C	0.323599	0.597782	0.047697
362	C	0.339871	0.630398	0.048716
363	H	0.308294	0.726903	0.937571
364	H	0.336762	0.700575	0.939536
365	H	0.334803	0.700686	0.083431
366	H	0.308183	0.729119	0.081922
367	H	0.395158	0.719334	0.076127
368	H	0.450155	0.747035	0.074244
369	H	0.31711	0.642938	0.947357
370	H	0.288549	0.58819	0.946644
371	H	0.325922	0.586317	0.075038
372	H	0.353194	0.641444	0.076625
373	H	0.393	0.680894	0.947361
374	H	0.447906	0.707107	0.946301
375	C	0.317497	0.786941	0.276459
376	C	0.293844	0.773557	0.312845
377	H	0.310565	0.771521	0.247037
378	H	0.339622	0.790981	0.289352
379	H	0.320549	0.808939	0.264527
380	N	0.27625	0.787058	0.319271
381	C	0.254183	0.779889	0.018548
382	C	0.24976	0.755512	0.048448
383	C	0.22613	0.742148	0.084867
384	H	0.233084	0.757578	0.114279
385	H	0.223075	0.72015	0.096806
386	H	0.203999	0.738111	0.072003
387	N	0.267361	0.742017	0.042031
388	C	0.289424	0.749184	0.342751
389	C	0.299807	0.538631	0.260002
390	C	0.285222	0.527819	0.305456
391	H	0.298852	0.519778	0.239941
392	H	0.323943	0.556206	0.263993
393	H	0.28784	0.548016	0.240583
394	N	0.269139	0.996664	0.312161
395	C	0.255263	0.98161	0.018393
396	C	0.258397	0.001258	0.055829
397	C	0.243813	0.990447	0.101284
398	H	0.219677	0.972869	0.097294
399	H	0.244767	0.0093	0.121344
400	H	0.255782	0.981064	0.120703
401	N	0.274479	0.532411	0.049124
402	C	0.288355	0.547468	0.342892
403	C	0.498071	0.767499	0.259195
404	C	0.508689	0.764218	0.305083
405	H	0.517009	0.785176	0.238987
406	H	0.480482	0.774102	0.26244
407	H	0.488763	0.745936	0.240342
408	N	0.039811	0.77947	0.312189
409	C	0.054737	0.781115	0.018792
410	C	0.034922	0.764874	0.056207
411	C	0.045537	0.761567	0.102084
412	H	0.063115	0.754952	0.098819
413	H	0.026596	0.74389	0.122287
414	H	0.054856	0.783124	0.120955
415	N	0.503802	0.749608	0.049091
416	C	0.488875	0.747946	0.342482
417	N	0.188466	0.847887	0.348534
418	C	0.204717	0.830978	0.349625
419	C	0.205359	0.881108	0.349292
420	C	0.155267	0.831355	0.349766
421	C	0.137564	0.812104	0.313177
422	C	0.104974	0.795886	0.314304
423	C	0.088183	0.797867	0.352109
424	C	0.106179	0.817939	0.388044
425	C	0.138776	0.834013	0.387135
426	C	0.212607	0.822426	0.39145
427	C	0.228905	0.806145	0.392455
428	C	0.237511	0.796703	0.351827
429	C	0.229785	0.805805	0.310011
430	C	0.213879	0.822495	0.308892
431	C	0.224301	0.897764	0.386778
432	C	0.240706	0.930329	0.387588
433	C	0.238641	0.948186	0.351481
434	C	0.220018	0.931295	0.313591
435	C	0.203744	0.898679	0.312573
436	H	0.235311	0.802172	0.423732
437	H	0.206835	0.828491	0.421757
438	H	0.208816	0.828396	0.277866
439	H	0.235443	0.79997	0.27938
440	H	0.148459	0.809744	0.285161
441	H	0.093461	0.782038	0.287038
442	H	0.226501	0.886138	0.413932
443	H	0.255069	0.940888	0.414646
444	H	0.217693	0.942758	0.286251
445	H	0.190419	0.887631	0.284666
446	H	0.150608	0.848179	0.413925
447	H	0.095701	0.821961	0.414982
448	N	0.355145	0.681189	0.346092
449	C	0.338892	0.698097	0.345001
450	C	0.338255	0.647967	0.345327
451	C	0.388343	0.697722	0.344854
452	C	0.40605	0.716975	0.381441
453	C	0.438638	0.733189	0.380312
454	C	0.455428	0.731208	0.342503
455	C	0.437431	0.711136	0.30657
456	C	0.404832	0.695067	0.307478
457	C	0.330992	0.70664	0.30318
458	C	0.31468	0.722907	0.30218
459	C	0.306108	0.732381	0.342808
460	C	0.313832	0.723275	0.384624
461	C	0.329736	0.706583	0.385739
462	C	0.319318	0.631314	0.307841
463	C	0.30291	0.598746	0.307034
464	C	0.304981	0.580892	0.343139
465	C	0.323599	0.597782	0.381029
466	C	0.339871	0.630398	0.382048
467	H	0.308294	0.726903	0.270904
468	H	0.336762	0.700575	0.272871
469	H	0.334803	0.700686	0.416766
470	H	0.308183	0.729119	0.415256
471	H	0.395158	0.719334	0.409459
472	H	0.450155	0.747035	0.407576
473	H	0.31711	0.642938	0.280692
474	H	0.288549	0.58819	0.279978
475	H	0.325922	0.586317	0.408372
476	H	0.353194	0.641444	0.409956
477	H	0.393	0.680894	0.280695
478	H	0.447906	0.707107	0.279633
479	C	0.317497	0.786941	0.609793
480	C	0.293844	0.773557	0.646177
481	H	0.310565	0.771521	0.580368
482	H	0.339622	0.790981	0.622684
483	H	0.320549	0.808939	0.597859
484	N	0.27625	0.787058	0.652602
485	C	0.254183	0.779889	0.351879
486	C	0.24976	0.755512	0.38178
487	C	0.22613	0.742148	0.418199
488	H	0.233084	0.757578	0.44761
489	H	0.223075	0.72015	0.43014
490	H	0.203999	0.738111	0.405336
491	N	0.267361	0.742017	0.375366
492	C	0.289424	0.749184	0.676082
493	C	0.299807	0.538631	0.593334
494	C	0.285222	0.527819	0.638789
495	H	0.298852	0.519778	0.573274
496	H	0.323943	0.556206	0.597327
497	H	0.28784	0.548016	0.573916
498	N	0.269139	0.996664	0.645495
499	C	0.255263	0.98161	0.351728
500	C	0.258397	0.001258	0.389162
501	C	0.243813	0.990447	0.434617
502	H	0.219677	0.972869	0.430627
503	H	0.244767	0.0093	0.454677
504	H	0.255782	0.981064	0.454035
505	N	0.274479	0.532411	0.382456
506	C	0.288355	0.547468	0.676223
507	C	0.498071	0.767499	0.592528
508	C	0.508689	0.764218	0.638415
509	H	0.517009	0.785176	0.572321
510	H	0.480482	0.774102	0.595773
511	H	0.488763	0.745936	0.573676
512	N	0.039811	0.77947	0.645522
513	C	0.054737	0.781115	0.352126
514	C	0.034922	0.764874	0.38954
515	C	0.045537	0.761567	0.435416
516	H	0.063115	0.754952	0.432154
517	H	0.026596	0.74389	0.45562
518	H	0.054856	0.783124	0.454286
519	N	0.503802	0.749608	0.382425
520	C	0.488875	0.747946	0.675815
521	N	0.188466	0.847887	0.681866
522	C	0.204717	0.830978	0.68296
523	C	0.205359	0.881108	0.682627
524	C	0.155267	0.831355	0.683097
525	C	0.137564	0.812104	0.64651
526	C	0.104974	0.795886	0.647635
527	C	0.088183	0.797867	0.68544
528	C	0.106179	0.817939	0.721379
529	C	0.138776	0.834013	0.72047
530	C	0.212607	0.822426	0.724782
531	C	0.228905	0.806145	0.725787
532	C	0.237511	0.796703	0.685162
533	C	0.229785	0.805805	0.643344
534	C	0.213879	0.822495	0.642226
535	C	0.224301	0.897764	0.720113
536	C	0.240706	0.930329	0.720919
537	C	0.238641	0.948186	0.684812
538	C	0.220018	0.931295	0.646925
539	C	0.203744	0.898679	0.645906
540	H	0.235311	0.802172	0.757064
541	H	0.206835	0.828491	0.755091
542	H	0.208816	0.828396	0.611199
543	H	0.235443	0.79997	0.612712
544	H	0.148459	0.809744	0.618495
545	H	0.093461	0.782038	0.620372
546	H	0.226501	0.886138	0.747264
547	H	0.255069	0.940888	0.747977
548	H	0.217693	0.942758	0.619583
549	H	0.190419	0.887631	0.617998
550	H	0.150608	0.848179	0.74726
551	H	0.095701	0.821961	0.748317
552	N	0.355145	0.681189	0.679423
553	C	0.338892	0.698097	0.678336
554	C	0.338255	0.647967	0.678662
555	C	0.388343	0.697722	0.678189
556	C	0.40605	0.716975	0.714772
557	C	0.438638	0.733189	0.713644
558	C	0.455428	0.731208	0.675835
559	C	0.437431	0.711136	0.639904
560	C	0.404832	0.695067	0.640809
561	C	0.330992	0.70664	0.636514
562	C	0.31468	0.722907	0.635513
563	C	0.306108	0.732381	0.676141
564	C	0.313832	0.723275	0.717956
565	C	0.329736	0.706583	0.71907
566	C	0.319318	0.631314	0.641173
567	C	0.30291	0.598746	0.640367
568	C	0.304981	0.580892	0.67647
569	C	0.323599	0.597782	0.714361
570	C	0.339871	0.630398	0.715383
571	H	0.308294	0.726903	0.604236
572	H	0.336762	0.700575	0.606205
573	H	0.334803	0.700686	0.750097
574	H	0.308183	0.729119	0.748588
575	H	0.395158	0.719334	0.742794
576	H	0.450155	0.747035	0.740911
577	H	0.31711	0.642938	0.614026
578	H	0.288549	0.58819	0.613309
579	H	0.325922	0.586317	0.741703
580	H	0.353194	0.641444	0.743291
581	H	0.393	0.680894	0.614029
582	H	0.447906	0.707107	0.612966
583	C	0.317497	0.786941	0.943124
584	C	0.293844	0.773557	0.979512
585	H	0.310565	0.771521	0.913703
586	H	0.339622	0.790981	0.956019
587	H	0.320549	0.808939	0.931194
588	N	0.27625	0.787058	0.985937
589	C	0.254183	0.779889	0.685214
590	C	0.24976	0.755512	0.715112
591	C	0.22613	0.742148	0.751531
592	H	0.233084	0.757578	0.780945
593	H	0.223075	0.72015	0.763472
594	H	0.203999	0.738111	0.738667
595	N	0.267361	0.742017	0.708697
596	C	0.289424	0.749184	0.009417
597	C	0.299807	0.538631	0.926666
598	C	0.285222	0.527819	0.97212
599	H	0.298852	0.519778	0.906606
600	H	0.323943	0.556206	0.930659
601	H	0.28784	0.548016	0.907247
602	N	0.269139	0.996664	0.978826
603	C	0.255263	0.98161	0.685059
604	C	0.258397	0.001258	0.722494
605	C	0.243813	0.990447	0.767951
606	H	0.219677	0.972869	0.763959
607	H	0.244767	0.0093	0.788008
608	H	0.255782	0.981064	0.78737
609	N	0.274479	0.532411	0.715791
610	C	0.288355	0.547468	0.009558
611	C	0.498071	0.767499	0.92586
612	C	0.508689	0.764218	0.97175
613	H	0.517009	0.785176	0.905652
614	H	0.480482	0.774102	0.929105
615	H	0.488763	0.745936	0.907007
616	N	0.039811	0.77947	0.978854
617	C	0.054737	0.781115	0.685457
618	C	0.034922	0.764874	0.722875
619	C	0.045537	0.761567	0.768751
620	H	0.063115	0.754952	0.765485
621	H	0.026596	0.74389	0.788951
622	H	0.054856	0.783124	0.787621
623	N	0.503802	0.749608	0.715757
624	C	0.488875	0.747946	0.00915
625	N	0.688466	0.347887	0.015202
626	C	0.704717	0.330978	0.016293
627	C	0.705359	0.381108	0.015961
628	C	0.65527	0.331358	0.016432
629	C	0.637566	0.312105	0.979842
630	C	0.604976	0.295886	0.98097
631	C	0.588183	0.297867	0.018775
632	C	0.606179	0.317939	0.054712
633	C	0.638778	0.334015	0.053804
634	C	0.712608	0.322426	0.058117
635	C	0.728904	0.306145	0.059122
636	C	0.737512	0.296705	0.018495
637	C	0.729786	0.305805	0.976676
638	C	0.71388	0.322495	0.975557
639	C	0.724301	0.397764	0.053446
640	C	0.740706	0.430329	0.054254
641	C	0.738641	0.448186	0.018148
642	C	0.72002	0.431296	0.980257
643	C	0.703744	0.398679	0.979238
644	H	0.735312	0.302172	0.090398
645	H	0.706835	0.328491	0.088424
646	H	0.708818	0.328397	0.944531
647	H	0.735443	0.29997	0.946047
648	H	0.648459	0.309744	0.951827
649	H	0.593461	0.282038	0.953703
650	H	0.726502	0.38614	0.0806
651	H	0.755069	0.440888	0.081312
652	H	0.717695	0.44276	0.952914
653	H	0.69042	0.387633	0.951333
654	H	0.650608	0.348179	0.080594
655	H	0.595702	0.321963	0.08165
656	N	0.855146	0.18119	0.012755
657	C	0.838892	0.198098	0.011668
658	C	0.838256	0.147969	0.011993
659	C	0.888343	0.197723	0.01152
660	C	0.906051	0.216975	0.048108
661	C	0.938639	0.233189	0.046978
662	C	0.955428	0.231208	0.00917
663	C	0.937432	0.211136	0.973235
664	C	0.904833	0.195067	0.974144
665	C	0.830993	0.206641	0.969846
666	C	0.814681	0.222907	0.968844
667	C	0.806108	0.232382	0.009472
668	C	0.813832	0.223277	0.05129
669	C	0.829737	0.206584	0.052406
670	C	0.819319	0.131314	0.974508
671	C	0.802912	0.098747	0.973698
672	C	0.804981	0.080892	0.009805
673	C	0.8236	0.097783	0.047696
674	C	0.839873	0.130399	0.048716
675	H	0.808295	0.226903	0.937571
676	H	0.836764	0.200575	0.939536
677	H	0.834805	0.200687	0.083431
678	H	0.808183	0.229119	0.081922
679	H	0.895158	0.219334	0.076128
680	H	0.950158	0.247038	0.074244
681	H	0.81711	0.142937	0.947357
682	H	0.788549	0.08819	0.946644
683	H	0.825924	0.086319	0.075037
684	H	0.853195	0.141446	0.076625
685	H	0.893001	0.180895	0.947361
686	H	0.947907	0.207108	0.946297
687	C	0.817497	0.286941	0.276459
688	C	0.793845	0.273557	0.312845
689	H	0.810566	0.271521	0.247036
690	H	0.839623	0.290983	0.289352
691	H	0.82055	0.308939	0.264526
692	N	0.77625	0.287058	0.319271
693	C	0.754184	0.279889	0.018548
694	C	0.749761	0.255512	0.048448
695	C	0.726131	0.242148	0.084867
696	H	0.733085	0.25758	0.114279
697	H	0.723077	0.220152	0.096807
698	H	0.703999	0.238111	0.072004
699	N	0.767361	0.242017	0.042032
700	C	0.789425	0.249184	0.342751
701	C	0.799807	0.038631	0.260001
702	C	0.785223	0.027819	0.305456
703	H	0.798851	0.019777	0.23994
704	H	0.823942	0.056207	0.263992
705	H	0.787839	0.048015	0.240583
706	N	0.76914	0.496666	0.312161
707	C	0.755263	0.48161	0.018393
708	C	0.758397	0.501258	0.055829
709	C	0.743813	0.490447	0.101284
710	H	0.719676	0.472869	0.097293
711	H	0.744765	0.5093	0.121343
712	H	0.75578	0.481064	0.120703
713	N	0.774481	0.032412	0.049124
714	C	0.788355	0.047468	0.342892
715	C	0.998073	0.267501	0.259195
716	C	0.008689	0.264218	0.305083
717	H	0.01701	0.285178	0.238987
718	H	0.980483	0.274102	0.26244
719	H	0.988764	0.245938	0.240342
720	N	0.539812	0.279472	0.312189
721	C	0.554737	0.281115	0.018792
722	C	0.534925	0.264876	0.056207
723	C	0.545539	0.261567	0.102084
724	H	0.563117	0.254952	0.098818
725	H	0.526596	0.24389	0.122286
726	H	0.554858	0.283124	0.120954
727	N	0.003803	0.249608	0.049091
728	C	0.988877	0.247949	0.342482
729	N	0.688466	0.347887	0.348534
730	C	0.704717	0.330978	0.349625
731	C	0.705359	0.381108	0.349292
732	C	0.65527	0.331358	0.349766
733	C	0.637566	0.312105	0.313177
734	C	0.604976	0.295886	0.314303
735	C	0.588183	0.297867	0.352109
736	C	0.606179	0.317939	0.388044
737	C	0.638778	0.334015	0.387135
738	C	0.712608	0.322426	0.39145
739	C	0.728904	0.306145	0.392455
740	C	0.737512	0.296705	0.351827
741	C	0.729786	0.305805	0.310011
742	C	0.71388	0.322495	0.308892
743	C	0.724301	0.397764	0.386778
744	C	0.740706	0.430329	0.387588
745	C	0.738641	0.448186	0.351481
746	C	0.72002	0.431296	0.313591
747	C	0.703744	0.398679	0.312573
748	H	0.735312	0.302172	0.423729
749	H	0.706835	0.328491	0.421757
750	H	0.708818	0.328397	0.277866
751	H	0.735443	0.29997	0.27938
752	H	0.648459	0.309744	0.285161
753	H	0.593461	0.282038	0.287038
754	H	0.726502	0.38614	0.413932
755	H	0.755069	0.440888	0.414646
756	H	0.717695	0.44276	0.28625
757	H	0.69042	0.387633	0.284665
758	H	0.650608	0.348179	0.413925
759	H	0.595702	0.321963	0.414982
760	N	0.855146	0.18119	0.346092
761	C	0.838892	0.198098	0.345001
762	C	0.838256	0.147969	0.345327
763	C	0.888343	0.197723	0.344854
764	C	0.906051	0.216975	0.381441
765	C	0.938639	0.233189	0.380312
766	C	0.955428	0.231208	0.342503
767	C	0.937432	0.211136	0.30657
768	C	0.904833	0.195067	0.307477
769	C	0.830993	0.206641	0.30318
770	C	0.814681	0.222907	0.30218
771	C	0.806108	0.232382	0.342808
772	C	0.813832	0.223277	0.384624
773	C	0.829737	0.206584	0.385739
774	C	0.819319	0.131314	0.307841
775	C	0.802912	0.098747	0.307034
776	C	0.804981	0.080892	0.343139
777	C	0.8236	0.097783	0.381029
778	C	0.839873	0.130399	0.382048
779	H	0.808295	0.226903	0.270904
780	H	0.836764	0.200575	0.272871
781	H	0.834805	0.200687	0.416766
782	H	0.808183	0.229119	0.415256
783	H	0.895158	0.219334	0.409459
784	H	0.950158	0.247038	0.407576
785	H	0.81711	0.142937	0.280692
786	H	0.788549	0.08819	0.279978
787	H	0.825924	0.086319	0.408372
788	H	0.853195	0.141446	0.409956
789	H	0.893001	0.180895	0.280695
790	H	0.947907	0.207108	0.279633
791	C	0.817497	0.286941	0.609793
792	C	0.793845	0.273557	0.646177
793	H	0.810566	0.271521	0.580368
794	H	0.839623	0.290983	0.622684
795	H	0.82055	0.308939	0.597859
796	N	0.77625	0.287058	0.652602
797	C	0.754184	0.279889	0.351879
798	C	0.749761	0.255512	0.38178
799	C	0.726131	0.242148	0.418199
800	H	0.733085	0.25758	0.44761
801	H	0.723077	0.220152	0.43014
802	H	0.703999	0.238111	0.405336
803	N	0.767361	0.242017	0.375366
804	C	0.789425	0.249184	0.676082
805	C	0.799807	0.038631	0.593334
806	C	0.785223	0.027819	0.638789
807	H	0.798851	0.019777	0.573274
808	H	0.823942	0.056207	0.597324
809	H	0.787839	0.048015	0.573916
810	N	0.76914	0.496666	0.645495
811	C	0.755263	0.48161	0.351728
812	C	0.758397	0.501258	0.389162
813	C	0.743813	0.490447	0.434617
814	H	0.719676	0.472869	0.430627
815	H	0.744765	0.5093	0.454677
816	H	0.75578	0.481064	0.454035
817	N	0.774481	0.032412	0.382456
818	C	0.788355	0.047468	0.676223
819	C	0.998073	0.267501	0.592528
820	C	0.008689	0.264218	0.638415
821	H	0.01701	0.285178	0.572321
822	H	0.980483	0.274102	0.595773
823	H	0.988764	0.245938	0.573676
824	N	0.539812	0.279472	0.645522
825	C	0.554737	0.281115	0.352126
826	C	0.534925	0.264876	0.38954
827	C	0.545539	0.261567	0.435416
828	H	0.563117	0.254952	0.43215
829	H	0.526596	0.24389	0.45562
830	H	0.554858	0.283124	0.454286
831	N	0.003803	0.249608	0.382425
832	C	0.988877	0.247949	0.675815
833	N	0.688466	0.347887	0.681866
834	C	0.704717	0.330978	0.68296
835	C	0.705359	0.381108	0.682627
836	C	0.65527	0.331358	0.683097
837	C	0.637566	0.312105	0.64651
838	C	0.604976	0.295886	0.647635
839	C	0.588183	0.297867	0.68544
840	C	0.606179	0.317939	0.721379
841	C	0.638778	0.334015	0.72047
842	C	0.712608	0.322426	0.724782
843	C	0.728904	0.306145	0.725787
844	C	0.737512	0.296705	0.685162
845	C	0.729786	0.305805	0.643344
846	C	0.71388	0.322495	0.642226
847	C	0.724301	0.397764	0.720113
848	C	0.740706	0.430329	0.720919
849	C	0.738641	0.448186	0.684812
850	C	0.72002	0.431296	0.646925
851	C	0.703744	0.398679	0.645906
852	H	0.735312	0.302172	0.757064
853	H	0.706835	0.328491	0.755091
854	H	0.708818	0.328397	0.611199
855	H	0.735443	0.29997	0.612712
856	H	0.648459	0.309744	0.618495
857	H	0.593461	0.282038	0.620372
858	H	0.726502	0.38614	0.747267
859	H	0.755069	0.440888	0.747977
860	H	0.717695	0.44276	0.619583
861	H	0.69042	0.387633	0.617998
862	H	0.650608	0.348179	0.74726
863	H	0.595702	0.321963	0.748317
864	N	0.855146	0.18119	0.679423
865	C	0.838892	0.198098	0.678336
866	C	0.838256	0.147969	0.678662
867	C	0.888343	0.197723	0.678185
868	C	0.906051	0.216975	0.714772
869	C	0.938639	0.233189	0.713644
870	C	0.955428	0.231208	0.675835
871	C	0.937432	0.211136	0.639904
872	C	0.904833	0.195067	0.640809
873	C	0.830993	0.206641	0.636514
874	C	0.814681	0.222907	0.635513
875	C	0.806108	0.232382	0.676141
876	C	0.813832	0.223277	0.717956
877	C	0.829737	0.206584	0.71907
878	C	0.819319	0.131314	0.641173
879	C	0.802912	0.098747	0.640367
880	C	0.804981	0.080892	0.67647
881	C	0.8236	0.097783	0.714361
882	C	0.839873	0.130399	0.715383
883	H	0.808295	0.226903	0.604236
884	H	0.836764	0.200575	0.606205
885	H	0.834805	0.200687	0.750097
886	H	0.808183	0.229119	0.748588
887	H	0.895158	0.219334	0.742794
888	H	0.950158	0.247038	0.740911
889	H	0.81711	0.142937	0.614026
890	H	0.788549	0.08819	0.613312
891	H	0.825924	0.086319	0.741703
892	H	0.853195	0.141446	0.743291
893	H	0.893001	0.180895	0.614029
894	H	0.947907	0.207108	0.612966
895	C	0.817497	0.286941	0.943124
896	C	0.793845	0.273557	0.979512
897	H	0.810566	0.271521	0.913703
898	H	0.839623	0.290983	0.956019
899	H	0.82055	0.308939	0.93119
900	N	0.77625	0.287058	0.985937
901	C	0.754184	0.279889	0.685214
902	C	0.749761	0.255512	0.715115
903	C	0.726131	0.242148	0.751534
904	H	0.733085	0.25758	0.780945
905	H	0.723077	0.220152	0.763472
906	H	0.703999	0.238111	0.738671
907	N	0.767361	0.242017	0.708697
908	C	0.789425	0.249184	0.009417
909	C	0.799807	0.038631	0.926666
910	C	0.785223	0.027819	0.97212
911	H	0.798851	0.019777	0.906606
912	H	0.823942	0.056207	0.930659
913	H	0.787839	0.048015	0.907247
914	N	0.76914	0.496666	0.978826
915	C	0.755263	0.48161	0.685059
916	C	0.758397	0.501258	0.722494
917	C	0.743813	0.490447	0.767948
918	H	0.719676	0.472869	0.763959
919	H	0.744765	0.5093	0.788008
920	H	0.75578	0.481064	0.78737
921	N	0.774481	0.032412	0.715791
922	C	0.788355	0.047468	0.009558
923	C	0.998073	0.267501	0.92586
924	C	0.008689	0.264218	0.97175
925	H	0.01701	0.285178	0.905652
926	H	0.980483	0.274102	0.929105
927	H	0.988764	0.245938	0.907007
928	N	0.539812	0.279472	0.978854
929	C	0.554737	0.281115	0.685457
930	C	0.534925	0.264876	0.722871
931	C	0.545539	0.261567	0.768751
932	H	0.563117	0.254952	0.765485
933	H	0.526596	0.24389	0.788951
934	H	0.554858	0.283124	0.787621
935	N	0.003803	0.249608	0.715757
936	C	0.988877	0.247949	0.00915
937	N	0.688467	0.847887	0.015202
938	C	0.704718	0.830978	0.016293
939	C	0.705358	0.881108	0.015961
940	C	0.655268	0.831355	0.016432
941	C	0.637565	0.812104	0.979842
942	C	0.604975	0.795886	0.98097
943	C	0.588183	0.797867	0.018775
944	C	0.606179	0.817939	0.054712
945	C	0.638775	0.834013	0.053803
946	C	0.712607	0.822426	0.058117
947	C	0.728905	0.806145	0.059122
948	C	0.73751	0.796703	0.018495
949	C	0.729785	0.805805	0.976676
950	C	0.713879	0.822495	0.975557
951	C	0.7243	0.897764	0.053446
952	C	0.740707	0.930329	0.054254
953	C	0.73864	0.948186	0.018148
954	C	0.720019	0.931295	0.980257
955	C	0.703745	0.898679	0.979238
956	H	0.735311	0.802172	0.090398
957	H	0.706834	0.828491	0.088424
958	H	0.708817	0.828396	0.944531
959	H	0.735444	0.79997	0.946047
960	H	0.648458	0.809744	0.951827
961	H	0.59346	0.782038	0.953703
962	H	0.726502	0.886138	0.080599
963	H	0.755068	0.940888	0.081311
964	H	0.717694	0.942758	0.952918
965	H	0.690418	0.887631	0.951333
966	H	0.650609	0.848179	0.080593
967	H	0.5957	0.821961	0.08165
968	N	0.855144	0.681189	0.012755
969	C	0.838893	0.698097	0.011668
970	C	0.838255	0.647967	0.011993
971	C	0.888344	0.697722	0.01152
972	C	0.90605	0.716975	0.048108
973	C	0.938638	0.733189	0.046978
974	C	0.955429	0.731208	0.00917
975	C	0.937431	0.711136	0.973235
976	C	0.904832	0.695067	0.974144
977	C	0.830992	0.70664	0.969846
978	C	0.81468	0.722907	0.968844
979	C	0.806107	0.732381	0.009472
980	C	0.813832	0.723275	0.05129
981	C	0.829736	0.706583	0.052406
982	C	0.819318	0.631314	0.974508
983	C	0.80291	0.598746	0.973698
984	C	0.80498	0.580892	0.009805
985	C	0.823599	0.597782	0.047697
986	C	0.839871	0.630398	0.048716
987	H	0.808294	0.726903	0.937571
988	H	0.836762	0.700575	0.939536
989	H	0.834803	0.700686	0.083431
990	H	0.808182	0.729119	0.081922
991	H	0.895159	0.719334	0.076127
992	H	0.950156	0.747035	0.074244
993	H	0.817109	0.642938	0.947357
994	H	0.788548	0.58819	0.946644
995	H	0.825923	0.586317	0.075038
996	H	0.853193	0.641444	0.076625
997	H	0.892999	0.680894	0.947361
998	H	0.947906	0.707107	0.946301
999	C	0.817496	0.786941	0.276459
1000	C	0.793844	0.773557	0.312845
1001	H	0.810565	0.771521	0.247037
1002	H	0.839621	0.790981	0.289352
1003	H	0.820549	0.808939	0.264527
1004	N	0.776251	0.787058	0.319271
1005	C	0.754183	0.779889	0.018548
1006	C	0.74976	0.755512	0.048448
1007	C	0.72613	0.742148	0.084867
1008	H	0.733083	0.757578	0.114279
1009	H	0.723075	0.72015	0.096806
1010	H	0.704	0.738111	0.072003
1011	N	0.76736	0.742017	0.042031
1012	C	0.789424	0.749184	0.342751
1013	C	0.799806	0.538631	0.260002
1014	C	0.785222	0.527819	0.305456
1015	H	0.798852	0.519778	0.239941
1016	H	0.823942	0.556206	0.263993
1017	H	0.787841	0.548016	0.240583
1018	N	0.769138	0.996664	0.312161
1019	C	0.755262	0.98161	0.018393
1020	C	0.758396	0.001258	0.055829
1021	C	0.743812	0.990447	0.101284
1022	H	0.719676	0.972869	0.097294
1023	H	0.744766	0.0093	0.121344
1024	H	0.755781	0.981064	0.120703
1025	N	0.774479	0.532411	0.049124
1026	C	0.788356	0.547468	0.342892
1027	C	0.998071	0.767499	0.259195
1028	C	0.008688	0.764218	0.305083
1029	H	0.01701	0.785176	0.238987
1030	H	0.980482	0.774102	0.26244
1031	H	0.988764	0.745936	0.240342
1032	N	0.53981	0.77947	0.312189
1033	C	0.554737	0.781115	0.018792
1034	C	0.534922	0.764874	0.056207
1035	C	0.545537	0.761567	0.102084
1036	H	0.563116	0.754952	0.098819
1037	H	0.526595	0.74389	0.122287
1038	H	0.554857	0.783124	0.120955
1039	N	0.003802	0.749608	0.049091
1040	C	0.988874	0.747946	0.342482
1041	N	0.688467	0.847887	0.348534
1042	C	0.704718	0.830978	0.349625
1043	C	0.705358	0.881108	0.349292
1044	C	0.655268	0.831355	0.349766
1045	C	0.637565	0.812104	0.313177
1046	C	0.604975	0.795886	0.314304
1047	C	0.588183	0.797867	0.352109
1048	C	0.606179	0.817939	0.388044
1049	C	0.638775	0.834013	0.387135
1050	C	0.712607	0.822426	0.39145
1051	C	0.728905	0.806145	0.392455
1052	C	0.73751	0.796703	0.351827
1053	C	0.729785	0.805805	0.310011
1054	C	0.713879	0.822495	0.308892
1055	C	0.7243	0.897764	0.386778
1056	C	0.740707	0.930329	0.387588
1057	C	0.73864	0.948186	0.351481
1058	C	0.720019	0.931295	0.313591
1059	C	0.703745	0.898679	0.312573
1060	H	0.735311	0.802172	0.423732
1061	H	0.706834	0.828491	0.421757
1062	H	0.708817	0.828396	0.277866
1063	H	0.735444	0.79997	0.27938
1064	H	0.648458	0.809744	0.285161
1065	H	0.59346	0.782038	0.287038
1066	H	0.726502	0.886138	0.413932
1067	H	0.755068	0.940888	0.414646
1068	H	0.717694	0.942758	0.286251
1069	H	0.690418	0.887631	0.284666
1070	H	0.650609	0.848179	0.413925
1071	H	0.5957	0.821961	0.414982
1072	N	0.855144	0.681189	0.346092
1073	C	0.838893	0.698097	0.345001
1074	C	0.838255	0.647967	0.345327
1075	C	0.888344	0.697722	0.344854
1076	C	0.90605	0.716975	0.381441
1077	C	0.938638	0.733189	0.380312
1078	C	0.955429	0.731208	0.342503
1079	C	0.937431	0.711136	0.30657
1080	C	0.904832	0.695067	0.307478
1081	C	0.830992	0.70664	0.30318
1082	C	0.81468	0.722907	0.30218
1083	C	0.806107	0.732381	0.342808
1084	C	0.813832	0.723275	0.384624
1085	C	0.829736	0.706583	0.385739
1086	C	0.819318	0.631314	0.307841
1087	C	0.80291	0.598746	0.307034
1088	C	0.80498	0.580892	0.343139
1089	C	0.823599	0.597782	0.381029
1090	C	0.839871	0.630398	0.382048
1091	H	0.808294	0.726903	0.270904
1092	H	0.836762	0.700575	0.272871
1093	H	0.834803	0.700686	0.416766
1094	H	0.808182	0.729119	0.415256
1095	H	0.895159	0.719334	0.409459
1096	H	0.950156	0.747035	0.407576
1097	H	0.817109	0.642938	0.280692
1098	H	0.788548	0.58819	0.279978
1099	H	0.825923	0.586317	0.408372
1100	H	0.853193	0.641444	0.409956
1101	H	0.892999	0.680894	0.280695
1102	H	0.947906	0.707107	0.279633
1103	C	0.817496	0.786941	0.609793
1104	C	0.793844	0.773557	0.646177
1105	H	0.810565	0.771521	0.580368
1106	H	0.839621	0.790981	0.622684
1107	H	0.820549	0.808939	0.597859
1108	N	0.776251	0.787058	0.652602
1109	C	0.754183	0.779889	0.351879
1110	C	0.74976	0.755512	0.38178
1111	C	0.72613	0.742148	0.418199
1112	H	0.733083	0.757578	0.44761
1113	H	0.723075	0.72015	0.43014
1114	H	0.704	0.738111	0.405336
1115	N	0.76736	0.742017	0.375366
1116	C	0.789424	0.749184	0.676082
1117	C	0.799806	0.538631	0.593334
1118	C	0.785222	0.527819	0.638789
1119	H	0.798852	0.519778	0.573274
1120	H	0.823942	0.556206	0.597327
1121	H	0.787841	0.548016	0.573916
1122	N	0.769138	0.996664	0.645495
1123	C	0.755262	0.98161	0.351728
1124	C	0.758396	0.001258	0.389162
1125	C	0.743812	0.990447	0.434617
1126	H	0.719676	0.972869	0.430627
1127	H	0.744766	0.0093	0.454677
1128	H	0.755781	0.981064	0.454035
1129	N	0.774479	0.532411	0.382456
1130	C	0.788356	0.547468	0.676223
1131	C	0.998071	0.767499	0.592528
1132	C	0.008688	0.764218	0.638415
1133	H	0.01701	0.785176	0.572321
1134	H	0.980482	0.774102	0.595773
1135	H	0.988764	0.745936	0.573676
1136	N	0.53981	0.77947	0.645522
1137	C	0.554737	0.781115	0.352126
1138	C	0.534922	0.764874	0.38954
1139	C	0.545537	0.761567	0.435416
1140	H	0.563116	0.754952	0.432154
1141	H	0.526595	0.74389	0.45562
1142	H	0.554857	0.783124	0.454286
1143	N	0.003802	0.749608	0.382425
1144	C	0.988874	0.747946	0.675815
1145	N	0.688467	0.847887	0.681866
1146	C	0.704718	0.830978	0.68296
1147	C	0.705358	0.881108	0.682627
1148	C	0.655268	0.831355	0.683097
1149	C	0.637565	0.812104	0.64651
1150	C	0.604975	0.795886	0.647635
1151	C	0.588183	0.797867	0.68544
1152	C	0.606179	0.817939	0.721379
1153	C	0.638775	0.834013	0.72047
1154	C	0.712607	0.822426	0.724782
1155	C	0.728905	0.806145	0.725787
1156	C	0.73751	0.796703	0.685162
1157	C	0.729785	0.805805	0.643344
1158	C	0.713879	0.822495	0.642226
1159	C	0.7243	0.897764	0.720113
1160	C	0.740707	0.930329	0.720919
1161	C	0.73864	0.948186	0.684812
1162	C	0.720019	0.931295	0.646925
1163	C	0.703745	0.898679	0.645906
1164	H	0.735311	0.802172	0.757064
1165	H	0.706834	0.828491	0.755091
1166	H	0.708817	0.828396	0.611199
1167	H	0.735444	0.79997	0.612712
1168	H	0.648458	0.809744	0.618495
1169	H	0.59346	0.782038	0.620372
1170	H	0.726502	0.886138	0.747264
1171	H	0.755068	0.940888	0.747977
1172	H	0.717694	0.942758	0.619583
1173	H	0.690418	0.887631	0.617998
1174	H	0.650609	0.848179	0.74726
1175	H	0.5957	0.821961	0.748317
1176	N	0.855144	0.681189	0.679423
1177	C	0.838893	0.698097	0.678336
1178	C	0.838255	0.647967	0.678662
1179	C	0.888344	0.697722	0.678189
1180	C	0.90605	0.716975	0.714772
1181	C	0.938638	0.733189	0.713644
1182	C	0.955429	0.731208	0.675835
1183	C	0.937431	0.711136	0.639904
1184	C	0.904832	0.695067	0.640809
1185	C	0.830992	0.70664	0.636514
1186	C	0.81468	0.722907	0.635513
1187	C	0.806107	0.732381	0.676141
1188	C	0.813832	0.723275	0.717956
1189	C	0.829736	0.706583	0.71907
1190	C	0.819318	0.631314	0.641173
1191	C	0.80291	0.598746	0.640367
1192	C	0.80498	0.580892	0.67647
1193	C	0.823599	0.597782	0.714361
1194	C	0.839871	0.630398	0.715383
1195	H	0.808294	0.726903	0.604236
1196	H	0.836762	0.700575	0.606205
1197	H	0.834803	0.700686	0.750097
1198	H	0.808182	0.729119	0.748588
1199	H	0.895159	0.719334	0.742794
1200	H	0.950156	0.747035	0.740911
1201	H	0.817109	0.642938	0.614026
1202	H	0.788548	0.58819	0.613309
1203	H	0.825923	0.586317	0.741703
1204	H	0.853193	0.641444	0.743291
1205	H	0.892999	0.680894	0.614029
1206	H	0.947906	0.707107	0.612966
1207	C	0.817496	0.786941	0.943124
1208	C	0.793844	0.773557	0.979512
1209	H	0.810565	0.771521	0.913703
1210	H	0.839621	0.790981	0.956019
1211	H	0.820549	0.808939	0.931194
1212	N	0.776251	0.787058	0.985937
1213	C	0.754183	0.779889	0.685214
1214	C	0.74976	0.755512	0.715112
1215	C	0.72613	0.742148	0.751531
1216	H	0.733083	0.757578	0.780945
1217	H	0.723075	0.72015	0.763472
1218	H	0.704	0.738111	0.738667
1219	N	0.76736	0.742017	0.708697
1220	C	0.789424	0.749184	0.009417
1221	C	0.799806	0.538631	0.926666
1222	C	0.785222	0.527819	0.97212
1223	H	0.798852	0.519778	0.906606
1224	H	0.823942	0.556206	0.930659
1225	H	0.787841	0.548016	0.907247
1226	N	0.769138	0.996664	0.978826
1227	C	0.755262	0.98161	0.685059
1228	C	0.758396	0.001258	0.722494
1229	C	0.743812	0.990447	0.767951
1230	H	0.719676	0.972869	0.763959
1231	H	0.744766	0.0093	0.788008
1232	H	0.755781	0.981064	0.78737
1233	N	0.774479	0.532411	0.715791
1234	C	0.788356	0.547468	0.009558
1235	C	0.998071	0.767499	0.92586
1236	C	0.008688	0.764218	0.97175
1237	H	0.01701	0.785176	0.905652
1238	H	0.980482	0.774102	0.929105
1239	H	0.988764	0.745936	0.907007
1240	N	0.53981	0.77947	0.978854
1241	C	0.554737	0.781115	0.685457
1242	C	0.534922	0.764874	0.722875
1243	C	0.545537	0.761567	0.768751
1244	H	0.563116	0.754952	0.765485
1245	H	0.526595	0.74389	0.788951
1246	H	0.554857	0.783124	0.787621
1247	N	0.003802	0.749608	0.715757
1248	C	0.988874	0.747946	0.00915
