data_C432H432N72O36_2018-02-15_10:34:04
#******************************************
#
# CIF file created by Zeo++
# Zeo++ is an open source package to
# analyze microporous materials
#
#*******************************************

_cell_length_a		43.4746   
_cell_length_b		43.4746   
_cell_length_c		30.0116   
_cell_angle_alpha		90   
_cell_angle_beta		90   
_cell_angle_gamma		120   

_symmetry_space_group_name_H-M		'P1'
_symmetry_Int_Tables_number		1
_symmetry_cell_setting		Monoclinic

loop_
_symmetry_equiv_pos_as_xyz
'+x,+y,+z'

loop_
_atom_site_label
_atom_site_type_symbol
_atom_site_fract_x
_atom_site_fract_y
_atom_site_fract_z
1	C	0.184119	0.313282	0.057278
2	C	0.146625	0.295832	0.057515
3	C	0.128778	0.315399	0.057271
4	C	0.148822	0.352894	0.057517
5	C	0.186235	0.37074	0.057277
6	C	0.203687	0.350698	0.057537
7	H	0.136036	0.367263	0.057264
8	H	0.230841	0.363481	0.057265
9	H	0.132255	0.268677	0.057261
10	N	0.202982	0.294602	0.056216
11	H	0.195022	0.277242	0.082614
12	N	0.204915	0.408283	0.056218
13	H	0.222269	0.417683	0.082623
14	N	0.091235	0.296536	0.056215
15	H	0.081838	0.304493	0.08262
16	C	0.314954	0.185996	0.942562
17	C	0.352465	0.203792	0.942285
18	C	0.370652	0.184561	0.942575
19	C	0.35094	0.147051	0.942302
20	C	0.313519	0.128861	0.942569
21	C	0.295723	0.148575	0.942295
22	H	0.363969	0.13292	0.942795
23	H	0.268561	0.135544	0.942789
24	H	0.366596	0.230954	0.942795
25	N	0.295759	0.204332	0.944261
26	H	0.303531	0.221941	0.918148
27	N	0.295183	0.091329	0.944265
28	H	0.277574	0.081493	0.918148
29	N	0.408185	0.203756	0.944268
30	H	0.41802	0.195984	0.918155
31	C	0.225232	0.262111	0.341714
32	C	0.222817	0.242533	0.302995
33	C	0.24638	0.229738	0.295706
34	C	0.273389	0.236185	0.993536
35	C	0.275623	0.255439	0.03274
36	H	0.243403	0.21559	0.267267
37	H	0.203728	0.237443	0.279572
38	C	0.25216	0.268533	0.039613
39	H	0.255092	0.282916	0.067821
40	O	0.301195	0.262929	0.063905
41	H	0.29044	0.243868	0.086242
42	C	0.29883	0.222969	0.987061
43	H	0.294556	0.204722	0.014582
44	H	0.325842	0.24558	0.98993
45	C	0.199873	0.275487	0.347162
46	H	0.172829	0.252918	0.344333
47	H	0.204341	0.293442	0.319221
48	C	0.237413	0.463027	0.341721
49	C	0.256995	0.48019	0.303004
50	C	0.269785	0.016548	0.295713
51	C	0.263331	0.037107	0.993539
52	C	0.244071	0.020085	0.032739
53	H	0.283937	0.027719	0.267277
54	H	0.262092	0.466193	0.279586
55	C	0.230981	0.483529	0.039613
56	H	0.216597	0.472079	0.067819
57	O	0.236573	0.038164	0.063899
58	H	0.255632	0.046473	0.08624
59	C	0.276542	0.075762	0.987065
60	H	0.294787	0.089737	0.014585
61	H	0.25393	0.080161	0.989927
62	C	0.224041	0.424291	0.347172
63	H	0.246613	0.419821	0.344353
64	H	0.206094	0.410804	0.319223
65	C	0.036489	0.274292	0.341724
66	C	0.019323	0.276706	0.303006
67	C	0.482967	0.25314	0.295717
68	C	0.462409	0.226124	0.993542
69	C	0.479434	0.223883	0.032737
70	H	0.471795	0.256121	0.267283
71	H	0.03332	0.295803	0.279589
72	C	0.015988	0.247352	0.039613
73	H	0.027441	0.244421	0.067819
74	O	0.461351	0.198312	0.063902
75	H	0.453051	0.209069	0.086242
76	C	0.423753	0.200682	0.987068
77	H	0.409778	0.204954	0.01459
78	H	0.419352	0.173671	0.989934
79	C	0.075224	0.299651	0.347169
80	H	0.079697	0.326695	0.34435
81	H	0.08871	0.295189	0.31922
82	C	0.184119	0.313282	0.390612
83	C	0.146625	0.295832	0.390849
84	C	0.128778	0.315399	0.390606
85	C	0.148822	0.352894	0.390849
86	C	0.186235	0.37074	0.390609
87	C	0.203687	0.350698	0.390872
88	H	0.136036	0.367263	0.390599
89	H	0.230841	0.363481	0.390599
90	H	0.132255	0.268677	0.390596
91	N	0.202982	0.294602	0.389549
92	H	0.195022	0.277242	0.415949
93	N	0.204915	0.408283	0.389553
94	H	0.222269	0.417683	0.415956
95	N	0.091235	0.296536	0.389549
96	H	0.081838	0.304493	0.415952
97	C	0.314954	0.185996	0.275897
98	C	0.352465	0.203792	0.27562
99	C	0.370652	0.184561	0.275907
100	C	0.35094	0.147051	0.275634
101	C	0.313519	0.128861	0.275901
102	C	0.295723	0.148575	0.275629
103	H	0.363969	0.13292	0.27613
104	H	0.268561	0.135544	0.276122
105	H	0.366596	0.230954	0.27613
106	N	0.295759	0.204332	0.277594
107	H	0.303531	0.221941	0.25148
108	N	0.295183	0.091329	0.277597
109	H	0.277574	0.081493	0.251481
110	N	0.408185	0.203756	0.277602
111	H	0.41802	0.195984	0.251487
112	C	0.225232	0.262111	0.675049
113	C	0.222817	0.242533	0.636327
114	C	0.24638	0.229738	0.62904
115	C	0.273389	0.236185	0.32687
116	C	0.275623	0.255439	0.366075
117	H	0.243403	0.21559	0.600601
118	H	0.203728	0.237443	0.612906
119	C	0.25216	0.268533	0.372946
120	H	0.255092	0.282916	0.401155
121	O	0.301195	0.262929	0.39724
122	H	0.29044	0.243868	0.419574
123	C	0.29883	0.222969	0.320396
124	H	0.294556	0.204722	0.347915
125	H	0.325842	0.24558	0.323264
126	C	0.199873	0.275487	0.680497
127	H	0.172829	0.252918	0.677665
128	H	0.204341	0.293442	0.652554
129	C	0.237413	0.463027	0.675056
130	C	0.256995	0.48019	0.636337
131	C	0.269785	0.016548	0.629047
132	C	0.263331	0.037107	0.326872
133	C	0.244071	0.020085	0.366072
134	H	0.283937	0.027719	0.600611
135	H	0.262092	0.466193	0.61292
136	C	0.230981	0.483529	0.372946
137	H	0.216597	0.472079	0.401151
138	O	0.236573	0.038164	0.397233
139	H	0.255632	0.046473	0.419574
140	C	0.276542	0.075762	0.320396
141	H	0.294787	0.089737	0.347919
142	H	0.25393	0.080161	0.32326
143	C	0.224041	0.424291	0.680503
144	H	0.246613	0.419821	0.677688
145	H	0.206094	0.410804	0.652554
146	C	0.036489	0.274292	0.675056
147	C	0.019323	0.276706	0.63634
148	C	0.482967	0.25314	0.62905
149	C	0.462409	0.226124	0.326875
150	C	0.479434	0.223883	0.366068
151	H	0.471795	0.256121	0.600618
152	H	0.03332	0.295803	0.612923
153	C	0.015988	0.247352	0.372946
154	H	0.027441	0.244421	0.401151
155	O	0.461351	0.198312	0.397236
156	H	0.453051	0.209069	0.419574
157	C	0.423753	0.200682	0.320402
158	H	0.409778	0.204954	0.347925
159	H	0.419352	0.173671	0.323266
160	C	0.075224	0.299651	0.680503
161	H	0.079697	0.326695	0.677681
162	H	0.08871	0.295189	0.652554
163	C	0.184119	0.313282	0.723943
164	C	0.146625	0.295832	0.724183
165	C	0.128778	0.315399	0.723937
166	C	0.148822	0.352894	0.724183
167	C	0.186235	0.37074	0.723943
168	C	0.203687	0.350698	0.724203
169	H	0.136036	0.367263	0.72393
170	H	0.230841	0.363481	0.72393
171	H	0.132255	0.268677	0.723927
172	N	0.202982	0.294602	0.722884
173	H	0.195022	0.277242	0.74928
174	N	0.204915	0.408283	0.722884
175	H	0.222269	0.417683	0.74929
176	N	0.091235	0.296536	0.722884
177	H	0.081838	0.304493	0.749287
178	C	0.314954	0.185996	0.609231
179	C	0.352465	0.203792	0.608954
180	C	0.370652	0.184561	0.609241
181	C	0.35094	0.147051	0.608968
182	C	0.313519	0.128861	0.609234
183	C	0.295723	0.148575	0.608961
184	H	0.363969	0.13292	0.609464
185	H	0.268561	0.135544	0.609454
186	H	0.366596	0.230954	0.609464
187	N	0.295759	0.204332	0.610927
188	H	0.303531	0.221941	0.584814
189	N	0.295183	0.091329	0.61093
190	H	0.277574	0.081493	0.584814
191	N	0.408185	0.203756	0.610937
192	H	0.41802	0.195984	0.58482
193	C	0.225232	0.262111	0.008381
194	C	0.222817	0.242533	0.969662
195	C	0.24638	0.229738	0.962371
196	C	0.273389	0.236185	0.660205
197	C	0.275623	0.255439	0.699406
198	H	0.243403	0.21559	0.933935
199	H	0.203728	0.237443	0.946237
200	C	0.25216	0.268533	0.70628
201	H	0.255092	0.282916	0.734489
202	O	0.301195	0.262929	0.730571
203	H	0.29044	0.243868	0.752909
204	C	0.29883	0.222969	0.65373
205	H	0.294556	0.204722	0.68125
206	H	0.325842	0.24558	0.656599
207	C	0.199873	0.275487	0.013829
208	H	0.172829	0.252918	0.010999
209	H	0.204341	0.293442	0.985889
210	C	0.237413	0.463027	0.008387
211	C	0.256995	0.48019	0.969672
212	C	0.269785	0.016548	0.962381
213	C	0.263331	0.037107	0.660205
214	C	0.244071	0.020085	0.699406
215	H	0.283937	0.027719	0.933945
216	H	0.262092	0.466193	0.946254
217	C	0.230981	0.483529	0.70628
218	H	0.216597	0.472079	0.734486
219	O	0.236573	0.038164	0.730567
220	H	0.255632	0.046473	0.752905
221	C	0.276542	0.075762	0.65373
222	H	0.294787	0.089737	0.681253
223	H	0.25393	0.080161	0.656593
224	C	0.224041	0.424291	0.013837
225	H	0.246613	0.419821	0.01102
226	H	0.206094	0.410804	0.985889
227	C	0.036489	0.274292	0.00839
228	C	0.019323	0.276706	0.969675
229	C	0.482967	0.25314	0.962384
230	C	0.462409	0.226124	0.660208
231	C	0.479434	0.223883	0.699403
232	H	0.471795	0.256121	0.933949
233	H	0.03332	0.295803	0.946254
234	C	0.015988	0.247352	0.70628
235	H	0.027441	0.244421	0.734486
236	O	0.461351	0.198312	0.730567
237	H	0.453051	0.209069	0.752909
238	C	0.423753	0.200682	0.653734
239	H	0.409778	0.204954	0.681256
240	H	0.419352	0.173671	0.656599
241	C	0.075224	0.299651	0.013836
242	H	0.079697	0.326695	0.011016
243	H	0.08871	0.295189	0.985885
244	C	0.18412	0.813284	0.057278
245	C	0.146625	0.795834	0.057515
246	C	0.128777	0.815398	0.057271
247	C	0.148822	0.852893	0.057517
248	C	0.186235	0.870742	0.057277
249	C	0.203686	0.850697	0.057537
250	H	0.136036	0.867265	0.057264
251	H	0.230842	0.863483	0.057265
252	H	0.132255	0.768676	0.057261
253	N	0.202982	0.794604	0.056216
254	H	0.195022	0.777244	0.082614
255	N	0.204915	0.908282	0.056218
256	H	0.222268	0.917682	0.082623
257	N	0.091237	0.796537	0.056215
258	H	0.081838	0.804492	0.08262
259	C	0.314954	0.685996	0.942562
260	C	0.352465	0.703794	0.942285
261	C	0.370653	0.684562	0.942575
262	C	0.350939	0.64705	0.942302
263	C	0.313519	0.628862	0.942569
264	C	0.295723	0.648575	0.942295
265	H	0.36397	0.63292	0.942795
266	H	0.268561	0.635544	0.942789
267	H	0.366596	0.730955	0.942795
268	N	0.295759	0.704333	0.944261
269	H	0.303531	0.721943	0.918148
270	N	0.295182	0.591329	0.944265
271	H	0.277575	0.581494	0.918148
272	N	0.408186	0.703757	0.944268
273	H	0.418021	0.695985	0.918155
274	C	0.225233	0.762113	0.341714
275	C	0.222817	0.742532	0.302995
276	C	0.24638	0.729738	0.295706
277	C	0.273389	0.736184	0.993536
278	C	0.275624	0.755441	0.03274
279	H	0.243403	0.715592	0.267267
280	H	0.203728	0.737443	0.279572
281	C	0.252161	0.768535	0.039613
282	H	0.255091	0.782915	0.067821
283	O	0.301195	0.762931	0.063905
284	H	0.29044	0.743868	0.086242
285	C	0.298831	0.722971	0.987061
286	H	0.294557	0.704724	0.014582
287	H	0.325843	0.745581	0.98993
288	C	0.199872	0.775486	0.347162
289	H	0.17283	0.75292	0.344333
290	H	0.204342	0.793443	0.319221
291	C	0.237412	0.963026	0.341721
292	C	0.256997	0.980192	0.303004
293	C	0.269786	0.516549	0.295713
294	C	0.26333	0.537106	0.993539
295	C	0.244072	0.520087	0.032739
296	H	0.283937	0.52772	0.267277
297	H	0.262093	0.966194	0.279586
298	C	0.230981	0.98353	0.039613
299	H	0.216596	0.972078	0.067819
300	O	0.236573	0.538163	0.063899
301	H	0.255632	0.546474	0.08624
302	C	0.276542	0.575762	0.987065
303	H	0.294787	0.589738	0.014585
304	H	0.25393	0.580161	0.989927
305	C	0.224042	0.924293	0.347172
306	H	0.246614	0.919823	0.344353
307	H	0.206093	0.910803	0.319223
308	C	0.036488	0.77429	0.341724
309	C	0.019324	0.776707	0.303006
310	C	0.482967	0.75314	0.295717
311	C	0.462409	0.726126	0.993542
312	C	0.479434	0.723884	0.032737
313	H	0.471794	0.756123	0.267283
314	H	0.03332	0.795802	0.279589
315	C	0.015989	0.747353	0.039613
316	H	0.027441	0.744421	0.067819
317	O	0.461351	0.698312	0.063902
318	H	0.45305	0.709069	0.086242
319	C	0.423753	0.700684	0.987068
320	H	0.40978	0.704955	0.01459
321	H	0.419352	0.673672	0.989934
322	C	0.075225	0.799653	0.347169
323	H	0.079697	0.826694	0.34435
324	H	0.08871	0.795188	0.31922
325	C	0.18412	0.813284	0.390612
326	C	0.146625	0.795834	0.390849
327	C	0.128777	0.815398	0.390606
328	C	0.148822	0.852893	0.390849
329	C	0.186235	0.870742	0.390609
330	C	0.203686	0.850697	0.390872
331	H	0.136036	0.867265	0.390599
332	H	0.230842	0.863483	0.390599
333	H	0.132255	0.768676	0.390596
334	N	0.202982	0.794604	0.389549
335	H	0.195022	0.777244	0.415949
336	N	0.204915	0.908282	0.389553
337	H	0.222268	0.917682	0.415956
338	N	0.091237	0.796537	0.389549
339	H	0.081838	0.804492	0.415952
340	C	0.314954	0.685996	0.275897
341	C	0.352465	0.703794	0.27562
342	C	0.370653	0.684562	0.275907
343	C	0.350939	0.64705	0.275634
344	C	0.313519	0.628862	0.275901
345	C	0.295723	0.648575	0.275629
346	H	0.36397	0.63292	0.27613
347	H	0.268561	0.635544	0.276122
348	H	0.366596	0.730955	0.27613
349	N	0.295759	0.704333	0.277594
350	H	0.303531	0.721943	0.25148
351	N	0.295182	0.591329	0.277597
352	H	0.277575	0.581494	0.251481
353	N	0.408186	0.703757	0.277602
354	H	0.418021	0.695985	0.251487
355	C	0.225233	0.762113	0.675049
356	C	0.222817	0.742532	0.636327
357	C	0.24638	0.729738	0.62904
358	C	0.273389	0.736184	0.32687
359	C	0.275624	0.755441	0.366075
360	H	0.243403	0.715592	0.600601
361	H	0.203728	0.737443	0.612906
362	C	0.252161	0.768535	0.372946
363	H	0.255091	0.782915	0.401155
364	O	0.301195	0.762931	0.39724
365	H	0.29044	0.743868	0.419574
366	C	0.298831	0.722971	0.320396
367	H	0.294557	0.704724	0.347915
368	H	0.325843	0.745581	0.323264
369	C	0.199872	0.775486	0.680497
370	H	0.17283	0.75292	0.677665
371	H	0.204342	0.793443	0.652554
372	C	0.237412	0.963026	0.675056
373	C	0.256997	0.980192	0.636337
374	C	0.269786	0.516549	0.629047
375	C	0.26333	0.537106	0.326872
376	C	0.244072	0.520087	0.366072
377	H	0.283937	0.52772	0.600611
378	H	0.262093	0.966194	0.61292
379	C	0.230981	0.98353	0.372946
380	H	0.216596	0.972078	0.401151
381	O	0.236573	0.538163	0.397233
382	H	0.255632	0.546474	0.419574
383	C	0.276542	0.575762	0.320396
384	H	0.294787	0.589738	0.347919
385	H	0.25393	0.580161	0.32326
386	C	0.224042	0.924293	0.680503
387	H	0.246614	0.919823	0.677688
388	H	0.206093	0.910803	0.652554
389	C	0.036488	0.77429	0.675056
390	C	0.019324	0.776707	0.63634
391	C	0.482967	0.75314	0.62905
392	C	0.462409	0.726126	0.326875
393	C	0.479434	0.723884	0.366068
394	H	0.471794	0.756123	0.600618
395	H	0.03332	0.795802	0.612923
396	C	0.015989	0.747353	0.372946
397	H	0.027441	0.744421	0.401151
398	O	0.461351	0.698312	0.397236
399	H	0.45305	0.709069	0.419574
400	C	0.423753	0.700684	0.320402
401	H	0.40978	0.704955	0.347925
402	H	0.419352	0.673672	0.323266
403	C	0.075225	0.799653	0.680503
404	H	0.079697	0.826694	0.677681
405	H	0.08871	0.795188	0.652554
406	C	0.18412	0.813284	0.723943
407	C	0.146625	0.795834	0.724183
408	C	0.128777	0.815398	0.723937
409	C	0.148822	0.852893	0.724183
410	C	0.186235	0.870742	0.723943
411	C	0.203686	0.850697	0.724203
412	H	0.136036	0.867265	0.72393
413	H	0.230842	0.863483	0.72393
414	H	0.132255	0.768676	0.723927
415	N	0.202982	0.794604	0.722884
416	H	0.195022	0.777244	0.74928
417	N	0.204915	0.908282	0.722884
418	H	0.222268	0.917682	0.74929
419	N	0.091237	0.796537	0.722884
420	H	0.081838	0.804492	0.749287
421	C	0.314954	0.685996	0.609231
422	C	0.352465	0.703794	0.608954
423	C	0.370653	0.684562	0.609241
424	C	0.350939	0.64705	0.608968
425	C	0.313519	0.628862	0.609234
426	C	0.295723	0.648575	0.608961
427	H	0.36397	0.63292	0.609464
428	H	0.268561	0.635544	0.609454
429	H	0.366596	0.730955	0.609464
430	N	0.295759	0.704333	0.610927
431	H	0.303531	0.721943	0.584814
432	N	0.295182	0.591329	0.61093
433	H	0.277575	0.581494	0.584814
434	N	0.408186	0.703757	0.610937
435	H	0.418021	0.695985	0.58482
436	C	0.225233	0.762113	0.008381
437	C	0.222817	0.742532	0.969662
438	C	0.24638	0.729738	0.962371
439	C	0.273389	0.736184	0.660205
440	C	0.275624	0.755441	0.699406
441	H	0.243403	0.715592	0.933935
442	H	0.203728	0.737443	0.946237
443	C	0.252161	0.768535	0.70628
444	H	0.255091	0.782915	0.734489
445	O	0.301195	0.762931	0.730571
446	H	0.29044	0.743868	0.752909
447	C	0.298831	0.722971	0.65373
448	H	0.294557	0.704724	0.68125
449	H	0.325843	0.745581	0.656599
450	C	0.199872	0.775486	0.013829
451	H	0.17283	0.75292	0.010999
452	H	0.204342	0.793443	0.985889
453	C	0.237412	0.963026	0.008387
454	C	0.256997	0.980192	0.969672
455	C	0.269786	0.516549	0.962381
456	C	0.26333	0.537106	0.660205
457	C	0.244072	0.520087	0.699406
458	H	0.283937	0.52772	0.933945
459	H	0.262093	0.966194	0.946254
460	C	0.230981	0.98353	0.70628
461	H	0.216596	0.972078	0.734486
462	O	0.236573	0.538163	0.730567
463	H	0.255632	0.546474	0.752905
464	C	0.276542	0.575762	0.65373
465	H	0.294787	0.589738	0.681253
466	H	0.25393	0.580161	0.656593
467	C	0.224042	0.924293	0.013837
468	H	0.246614	0.919823	0.01102
469	H	0.206093	0.910803	0.985889
470	C	0.036488	0.77429	0.00839
471	C	0.019324	0.776707	0.969675
472	C	0.482967	0.75314	0.962384
473	C	0.462409	0.726126	0.660208
474	C	0.479434	0.723884	0.699403
475	H	0.471794	0.756123	0.933949
476	H	0.03332	0.795802	0.946254
477	C	0.015989	0.747353	0.70628
478	H	0.027441	0.744421	0.734486
479	O	0.461351	0.698312	0.730567
480	H	0.45305	0.709069	0.752909
481	C	0.423753	0.700684	0.653734
482	H	0.40978	0.704955	0.681256
483	H	0.419352	0.673672	0.656599
484	C	0.075225	0.799653	0.013836
485	H	0.079697	0.826694	0.011016
486	H	0.08871	0.795188	0.985885
487	C	0.684119	0.313282	0.057278
488	C	0.646626	0.295832	0.057515
489	C	0.628779	0.315399	0.057271
490	C	0.648822	0.352894	0.057517
491	C	0.686235	0.37074	0.057277
492	C	0.703687	0.350698	0.057537
493	H	0.636036	0.367263	0.057264
494	H	0.730841	0.363481	0.057265
495	H	0.632254	0.268677	0.057261
496	N	0.702982	0.294602	0.056216
497	H	0.695022	0.277242	0.082614
498	N	0.704915	0.408283	0.056218
499	H	0.722268	0.417683	0.082623
500	N	0.591235	0.296536	0.056215
501	H	0.581838	0.304493	0.08262
502	C	0.814955	0.185996	0.942562
503	C	0.852465	0.203792	0.942285
504	C	0.870654	0.184561	0.942575
505	C	0.85094	0.147051	0.942302
506	C	0.813519	0.128861	0.942569
507	C	0.795723	0.148575	0.942295
508	H	0.863969	0.13292	0.942795
509	H	0.768561	0.135544	0.942789
510	H	0.866596	0.230954	0.942795
511	N	0.79576	0.204332	0.944261
512	H	0.803531	0.221941	0.918148
513	N	0.795183	0.091329	0.944265
514	H	0.777574	0.081493	0.918148
515	N	0.908185	0.203756	0.944268
516	H	0.91802	0.195984	0.918155
517	C	0.725232	0.262111	0.341714
518	C	0.722818	0.242533	0.302995
519	C	0.74638	0.229738	0.295706
520	C	0.77339	0.236185	0.993536
521	C	0.775624	0.255439	0.03274
522	H	0.743403	0.21559	0.267267
523	H	0.703727	0.237443	0.279572
524	C	0.752161	0.268533	0.039613
525	H	0.755092	0.282916	0.067821
526	O	0.801194	0.262929	0.063905
527	H	0.790439	0.243868	0.086242
528	C	0.798831	0.222969	0.987061
529	H	0.794556	0.204722	0.014582
530	H	0.825842	0.24558	0.98993
531	C	0.699874	0.275487	0.347162
532	H	0.672829	0.252918	0.344333
533	H	0.704341	0.293442	0.319221
534	C	0.737413	0.463027	0.341721
535	C	0.756995	0.48019	0.303004
536	C	0.769785	0.016548	0.295713
537	C	0.763331	0.037107	0.993539
538	C	0.744071	0.020085	0.032739
539	H	0.783937	0.027719	0.267277
540	H	0.762093	0.466193	0.279586
541	C	0.730981	0.483529	0.039613
542	H	0.716598	0.472079	0.067819
543	O	0.736574	0.038164	0.063899
544	H	0.755632	0.046473	0.08624
545	C	0.776542	0.075762	0.987065
546	H	0.794787	0.089737	0.014585
547	H	0.75393	0.080161	0.989927
548	C	0.724042	0.424291	0.347172
549	H	0.746612	0.419821	0.344353
550	H	0.706094	0.410804	0.319223
551	C	0.536489	0.274292	0.341724
552	C	0.519323	0.276706	0.303006
553	C	0.982967	0.25314	0.295717
554	C	0.962409	0.226124	0.993542
555	C	0.979434	0.223883	0.032737
556	H	0.971795	0.256121	0.267283
557	H	0.53332	0.295803	0.279589
558	C	0.515988	0.247352	0.039613
559	H	0.52744	0.244421	0.067819
560	O	0.961351	0.198312	0.063902
561	H	0.953051	0.209069	0.086242
562	C	0.923753	0.200682	0.987068
563	H	0.909781	0.204954	0.01459
564	H	0.919352	0.173671	0.989934
565	C	0.575224	0.299651	0.347169
566	H	0.579696	0.326695	0.34435
567	H	0.58871	0.295189	0.31922
568	C	0.684119	0.313282	0.390612
569	C	0.646626	0.295832	0.390849
570	C	0.628779	0.315399	0.390606
571	C	0.648822	0.352894	0.390849
572	C	0.686235	0.37074	0.390609
573	C	0.703687	0.350698	0.390872
574	H	0.636036	0.367263	0.390599
575	H	0.730841	0.363481	0.390599
576	H	0.632254	0.268677	0.390596
577	N	0.702982	0.294602	0.389549
578	H	0.695022	0.277242	0.415949
579	N	0.704915	0.408283	0.389553
580	H	0.722268	0.417683	0.415956
581	N	0.591235	0.296536	0.389549
582	H	0.581838	0.304493	0.415952
583	C	0.814955	0.185996	0.275897
584	C	0.852465	0.203792	0.27562
585	C	0.870654	0.184561	0.275907
586	C	0.85094	0.147051	0.275634
587	C	0.813519	0.128861	0.275901
588	C	0.795723	0.148575	0.275629
589	H	0.863969	0.13292	0.27613
590	H	0.768561	0.135544	0.276122
591	H	0.866596	0.230954	0.27613
592	N	0.79576	0.204332	0.277594
593	H	0.803531	0.221941	0.25148
594	N	0.795183	0.091329	0.277597
595	H	0.777574	0.081493	0.251481
596	N	0.908185	0.203756	0.277602
597	H	0.91802	0.195984	0.251487
598	C	0.725232	0.262111	0.675049
599	C	0.722818	0.242533	0.636327
600	C	0.74638	0.229738	0.62904
601	C	0.77339	0.236185	0.32687
602	C	0.775624	0.255439	0.366075
603	H	0.743403	0.21559	0.600601
604	H	0.703727	0.237443	0.612906
605	C	0.752161	0.268533	0.372946
606	H	0.755092	0.282916	0.401155
607	O	0.801194	0.262929	0.39724
608	H	0.790439	0.243868	0.419574
609	C	0.798831	0.222969	0.320396
610	H	0.794556	0.204722	0.347915
611	H	0.825842	0.24558	0.323264
612	C	0.699874	0.275487	0.680497
613	H	0.672829	0.252918	0.677665
614	H	0.704341	0.293442	0.652554
615	C	0.737413	0.463027	0.675056
616	C	0.756995	0.48019	0.636337
617	C	0.769785	0.016548	0.629047
618	C	0.763331	0.037107	0.326872
619	C	0.744071	0.020085	0.366072
620	H	0.783937	0.027719	0.600611
621	H	0.762093	0.466193	0.61292
622	C	0.730981	0.483529	0.372946
623	H	0.716598	0.472079	0.401151
624	O	0.736574	0.038164	0.397233
625	H	0.755632	0.046473	0.419574
626	C	0.776542	0.075762	0.320396
627	H	0.794787	0.089737	0.347919
628	H	0.75393	0.080161	0.32326
629	C	0.724042	0.424291	0.680503
630	H	0.746612	0.419821	0.677688
631	H	0.706094	0.410804	0.652554
632	C	0.536489	0.274292	0.675056
633	C	0.519323	0.276706	0.63634
634	C	0.982967	0.25314	0.62905
635	C	0.962409	0.226124	0.326875
636	C	0.979434	0.223883	0.366068
637	H	0.971795	0.256121	0.600618
638	H	0.53332	0.295803	0.612923
639	C	0.515988	0.247352	0.372946
640	H	0.52744	0.244421	0.401151
641	O	0.961351	0.198312	0.397236
642	H	0.953051	0.209069	0.419574
643	C	0.923753	0.200682	0.320402
644	H	0.909781	0.204954	0.347925
645	H	0.919352	0.173671	0.323266
646	C	0.575224	0.299651	0.680503
647	H	0.579696	0.326695	0.677681
648	H	0.58871	0.295189	0.652554
649	C	0.684119	0.313282	0.723943
650	C	0.646626	0.295832	0.724183
651	C	0.628779	0.315399	0.723937
652	C	0.648822	0.352894	0.724183
653	C	0.686235	0.37074	0.723943
654	C	0.703687	0.350698	0.724203
655	H	0.636036	0.367263	0.72393
656	H	0.730841	0.363481	0.72393
657	H	0.632254	0.268677	0.723927
658	N	0.702982	0.294602	0.722884
659	H	0.695022	0.277242	0.74928
660	N	0.704915	0.408283	0.722884
661	H	0.722268	0.417683	0.74929
662	N	0.591235	0.296536	0.722884
663	H	0.581838	0.304493	0.749287
664	C	0.814955	0.185996	0.609231
665	C	0.852465	0.203792	0.608954
666	C	0.870654	0.184561	0.609241
667	C	0.85094	0.147051	0.608968
668	C	0.813519	0.128861	0.609234
669	C	0.795723	0.148575	0.608961
670	H	0.863969	0.13292	0.609464
671	H	0.768561	0.135544	0.609454
672	H	0.866596	0.230954	0.609464
673	N	0.79576	0.204332	0.610927
674	H	0.803531	0.221941	0.584814
675	N	0.795183	0.091329	0.61093
676	H	0.777574	0.081493	0.584814
677	N	0.908185	0.203756	0.610937
678	H	0.91802	0.195984	0.58482
679	C	0.725232	0.262111	0.008381
680	C	0.722818	0.242533	0.969662
681	C	0.74638	0.229738	0.962371
682	C	0.77339	0.236185	0.660205
683	C	0.775624	0.255439	0.699406
684	H	0.743403	0.21559	0.933935
685	H	0.703727	0.237443	0.946237
686	C	0.752161	0.268533	0.70628
687	H	0.755092	0.282916	0.734489
688	O	0.801194	0.262929	0.730571
689	H	0.790439	0.243868	0.752909
690	C	0.798831	0.222969	0.65373
691	H	0.794556	0.204722	0.68125
692	H	0.825842	0.24558	0.656599
693	C	0.699874	0.275487	0.013829
694	H	0.672829	0.252918	0.010999
695	H	0.704341	0.293442	0.985889
696	C	0.737413	0.463027	0.008387
697	C	0.756995	0.48019	0.969672
698	C	0.769785	0.016548	0.962381
699	C	0.763331	0.037107	0.660205
700	C	0.744071	0.020085	0.699406
701	H	0.783937	0.027719	0.933945
702	H	0.762093	0.466193	0.946254
703	C	0.730981	0.483529	0.70628
704	H	0.716598	0.472079	0.734486
705	O	0.736574	0.038164	0.730567
706	H	0.755632	0.046473	0.752905
707	C	0.776542	0.075762	0.65373
708	H	0.794787	0.089737	0.681253
709	H	0.75393	0.080161	0.656593
710	C	0.724042	0.424291	0.013837
711	H	0.746612	0.419821	0.01102
712	H	0.706094	0.410804	0.985889
713	C	0.536489	0.274292	0.00839
714	C	0.519323	0.276706	0.969675
715	C	0.982967	0.25314	0.962384
716	C	0.962409	0.226124	0.660208
717	C	0.979434	0.223883	0.699403
718	H	0.971795	0.256121	0.933949
719	H	0.53332	0.295803	0.946254
720	C	0.515988	0.247352	0.70628
721	H	0.52744	0.244421	0.734486
722	O	0.961351	0.198312	0.730567
723	H	0.953051	0.209069	0.752909
724	C	0.923753	0.200682	0.653734
725	H	0.909781	0.204954	0.681256
726	H	0.919352	0.173671	0.656599
727	C	0.575224	0.299651	0.013836
728	H	0.579696	0.326695	0.011016
729	H	0.58871	0.295189	0.985885
730	C	0.684121	0.813284	0.057278
731	C	0.646625	0.795834	0.057515
732	C	0.628778	0.815398	0.057271
733	C	0.648822	0.852893	0.057517
734	C	0.686235	0.870742	0.057277
735	C	0.703686	0.850697	0.057537
736	H	0.636037	0.867265	0.057264
737	H	0.730842	0.863483	0.057265
738	H	0.632255	0.768676	0.057261
739	N	0.702984	0.794604	0.056216
740	H	0.695022	0.777244	0.082614
741	N	0.704915	0.908282	0.056218
742	H	0.722268	0.917682	0.082623
743	N	0.591236	0.796537	0.056215
744	H	0.581838	0.804492	0.08262
745	C	0.814954	0.685996	0.942562
746	C	0.852465	0.703794	0.942285
747	C	0.870654	0.684562	0.942575
748	C	0.850939	0.64705	0.942302
749	C	0.81352	0.628862	0.942569
750	C	0.795724	0.648575	0.942295
751	H	0.863971	0.63292	0.942795
752	H	0.768562	0.635544	0.942789
753	H	0.866595	0.730955	0.942795
754	N	0.795759	0.704333	0.944261
755	H	0.803531	0.721943	0.918148
756	N	0.795182	0.591329	0.944265
757	H	0.777576	0.581494	0.918148
758	N	0.908185	0.703757	0.944268
759	H	0.918022	0.695985	0.918155
760	C	0.725232	0.762113	0.341714
761	C	0.722816	0.742532	0.302995
762	C	0.746381	0.729738	0.295706
763	C	0.773389	0.736184	0.993536
764	C	0.775624	0.755441	0.03274
765	H	0.743403	0.715592	0.267267
766	H	0.703729	0.737443	0.279572
767	C	0.75216	0.768535	0.039613
768	H	0.75509	0.782915	0.067821
769	O	0.801195	0.762931	0.063905
770	H	0.790441	0.743868	0.086242
771	C	0.79883	0.722971	0.987061
772	H	0.794556	0.704724	0.014582
773	H	0.825844	0.745581	0.98993
774	C	0.699872	0.775486	0.347162
775	H	0.672831	0.75292	0.344333
776	H	0.704343	0.793443	0.319221
777	C	0.737412	0.963026	0.341721
778	C	0.756997	0.980192	0.303004
779	C	0.769787	0.516549	0.295713
780	C	0.763329	0.537106	0.993539
781	C	0.744073	0.520087	0.032739
782	H	0.783938	0.52772	0.267277
783	H	0.762092	0.966194	0.279586
784	C	0.730981	0.98353	0.039613
785	H	0.716596	0.972078	0.067819
786	O	0.736573	0.538163	0.063899
787	H	0.755634	0.546474	0.08624
788	C	0.776541	0.575762	0.987065
789	H	0.794786	0.589738	0.014585
790	H	0.753931	0.580161	0.989927
791	C	0.724042	0.924293	0.347172
792	H	0.746614	0.919823	0.344353
793	H	0.706093	0.910803	0.319223
794	C	0.536489	0.77429	0.341724
795	C	0.519324	0.776707	0.303006
796	C	0.982968	0.75314	0.295717
797	C	0.962408	0.726126	0.993542
798	C	0.979434	0.723884	0.032737
799	H	0.971794	0.756123	0.267283
800	H	0.53332	0.795802	0.279589
801	C	0.515989	0.747353	0.039613
802	H	0.527441	0.744421	0.067819
803	O	0.961352	0.698312	0.063902
804	H	0.953049	0.709069	0.086242
805	C	0.923753	0.700684	0.987068
806	H	0.90978	0.704955	0.01459
807	H	0.919353	0.673672	0.989934
808	C	0.575225	0.799653	0.347169
809	H	0.579697	0.826694	0.34435
810	H	0.58871	0.795188	0.31922
811	C	0.684121	0.813284	0.390612
812	C	0.646625	0.795834	0.390849
813	C	0.628778	0.815398	0.390606
814	C	0.648822	0.852893	0.390849
815	C	0.686235	0.870742	0.390609
816	C	0.703686	0.850697	0.390872
817	H	0.636037	0.867265	0.390599
818	H	0.730842	0.863483	0.390599
819	H	0.632255	0.768676	0.390596
820	N	0.702984	0.794604	0.389549
821	H	0.695022	0.777244	0.415949
822	N	0.704915	0.908282	0.389553
823	H	0.722268	0.917682	0.415956
824	N	0.591236	0.796537	0.389549
825	H	0.581838	0.804492	0.415952
826	C	0.814954	0.685996	0.275897
827	C	0.852465	0.703794	0.27562
828	C	0.870654	0.684562	0.275907
829	C	0.850939	0.64705	0.275634
830	C	0.81352	0.628862	0.275901
831	C	0.795724	0.648575	0.275629
832	H	0.863971	0.63292	0.27613
833	H	0.768562	0.635544	0.276122
834	H	0.866595	0.730955	0.27613
835	N	0.795759	0.704333	0.277594
836	H	0.803531	0.721943	0.25148
837	N	0.795182	0.591329	0.277597
838	H	0.777576	0.581494	0.251481
839	N	0.908185	0.703757	0.277602
840	H	0.918022	0.695985	0.251487
841	C	0.725232	0.762113	0.675049
842	C	0.722816	0.742532	0.636327
843	C	0.746381	0.729738	0.62904
844	C	0.773389	0.736184	0.32687
845	C	0.775624	0.755441	0.366075
846	H	0.743403	0.715592	0.600601
847	H	0.703729	0.737443	0.612906
848	C	0.75216	0.768535	0.372946
849	H	0.75509	0.782915	0.401155
850	O	0.801195	0.762931	0.39724
851	H	0.790441	0.743868	0.419574
852	C	0.79883	0.722971	0.320396
853	H	0.794556	0.704724	0.347915
854	H	0.825844	0.745581	0.323264
855	C	0.699872	0.775486	0.680497
856	H	0.672831	0.75292	0.677665
857	H	0.704343	0.793443	0.652554
858	C	0.737412	0.963026	0.675056
859	C	0.756997	0.980192	0.636337
860	C	0.769787	0.516549	0.629047
861	C	0.763329	0.537106	0.326872
862	C	0.744073	0.520087	0.366072
863	H	0.783938	0.52772	0.600611
864	H	0.762092	0.966194	0.61292
865	C	0.730981	0.98353	0.372946
866	H	0.716596	0.972078	0.401151
867	O	0.736573	0.538163	0.397233
868	H	0.755634	0.546474	0.419574
869	C	0.776541	0.575762	0.320396
870	H	0.794786	0.589738	0.347919
871	H	0.753931	0.580161	0.32326
872	C	0.724042	0.924293	0.680503
873	H	0.746614	0.919823	0.677688
874	H	0.706093	0.910803	0.652554
875	C	0.536489	0.77429	0.675056
876	C	0.519324	0.776707	0.63634
877	C	0.982968	0.75314	0.62905
878	C	0.962408	0.726126	0.326875
879	C	0.979434	0.723884	0.366068
880	H	0.971794	0.756123	0.600618
881	H	0.53332	0.795802	0.612923
882	C	0.515989	0.747353	0.372946
883	H	0.527441	0.744421	0.401151
884	O	0.961352	0.698312	0.397236
885	H	0.953049	0.709069	0.419574
886	C	0.923753	0.700684	0.320402
887	H	0.90978	0.704955	0.347925
888	H	0.919353	0.673672	0.323266
889	C	0.575225	0.799653	0.680503
890	H	0.579697	0.826694	0.677681
891	H	0.58871	0.795188	0.652554
892	C	0.684121	0.813284	0.723943
893	C	0.646625	0.795834	0.724183
894	C	0.628778	0.815398	0.723937
895	C	0.648822	0.852893	0.724183
896	C	0.686235	0.870742	0.723943
897	C	0.703686	0.850697	0.724203
898	H	0.636037	0.867265	0.72393
899	H	0.730842	0.863483	0.72393
900	H	0.632255	0.768676	0.723927
901	N	0.702984	0.794604	0.722884
902	H	0.695022	0.777244	0.74928
903	N	0.704915	0.908282	0.722884
904	H	0.722268	0.917682	0.74929
905	N	0.591236	0.796537	0.722884
906	H	0.581838	0.804492	0.749287
907	C	0.814954	0.685996	0.609231
908	C	0.852465	0.703794	0.608954
909	C	0.870654	0.684562	0.609241
910	C	0.850939	0.64705	0.608968
911	C	0.81352	0.628862	0.609234
912	C	0.795724	0.648575	0.608961
913	H	0.863971	0.63292	0.609464
914	H	0.768562	0.635544	0.609454
915	H	0.866595	0.730955	0.609464
916	N	0.795759	0.704333	0.610927
917	H	0.803531	0.721943	0.584814
918	N	0.795182	0.591329	0.61093
919	H	0.777576	0.581494	0.584814
920	N	0.908185	0.703757	0.610937
921	H	0.918022	0.695985	0.58482
922	C	0.725232	0.762113	0.008381
923	C	0.722816	0.742532	0.969662
924	C	0.746381	0.729738	0.962371
925	C	0.773389	0.736184	0.660205
926	C	0.775624	0.755441	0.699406
927	H	0.743403	0.715592	0.933935
928	H	0.703729	0.737443	0.946237
929	C	0.75216	0.768535	0.70628
930	H	0.75509	0.782915	0.734489
931	O	0.801195	0.762931	0.730571
932	H	0.790441	0.743868	0.752909
933	C	0.79883	0.722971	0.65373
934	H	0.794556	0.704724	0.68125
935	H	0.825844	0.745581	0.656599
936	C	0.699872	0.775486	0.013829
937	H	0.672831	0.75292	0.010999
938	H	0.704343	0.793443	0.985889
939	C	0.737412	0.963026	0.008387
940	C	0.756997	0.980192	0.969672
941	C	0.769787	0.516549	0.962381
942	C	0.763329	0.537106	0.660205
943	C	0.744073	0.520087	0.699406
944	H	0.783938	0.52772	0.933945
945	H	0.762092	0.966194	0.946254
946	C	0.730981	0.98353	0.70628
947	H	0.716596	0.972078	0.734486
948	O	0.736573	0.538163	0.730567
949	H	0.755634	0.546474	0.752905
950	C	0.776541	0.575762	0.65373
951	H	0.794786	0.589738	0.681253
952	H	0.753931	0.580161	0.656593
953	C	0.724042	0.924293	0.013837
954	H	0.746614	0.919823	0.01102
955	H	0.706093	0.910803	0.985889
956	C	0.536489	0.77429	0.00839
957	C	0.519324	0.776707	0.969675
958	C	0.982968	0.75314	0.962384
959	C	0.962408	0.726126	0.660208
960	C	0.979434	0.723884	0.699403
961	H	0.971794	0.756123	0.933949
962	H	0.53332	0.795802	0.946254
963	C	0.515989	0.747353	0.70628
964	H	0.527441	0.744421	0.734486
965	O	0.961352	0.698312	0.730567
966	H	0.953049	0.709069	0.752909
967	C	0.923753	0.700684	0.653734
968	H	0.90978	0.704955	0.681256
969	H	0.919353	0.673672	0.656599
970	C	0.575225	0.799653	0.013836
971	H	0.579697	0.826694	0.011016
972	H	0.58871	0.795188	0.985885
