data_C720H432N216_2018-02-15_10:35:54
#******************************************
#
# CIF file created by Zeo++
# Zeo++ is an open source package to
# analyze microporous materials
#
#*******************************************

_cell_length_a		46.0932   
_cell_length_b		46.0932   
_cell_length_c		29.4792   
_cell_angle_alpha		90   
_cell_angle_beta		90   
_cell_angle_gamma		120   

_symmetry_space_group_name_H-M		'P1'
_symmetry_Int_Tables_number		1
_symmetry_cell_setting		Monoclinic

loop_
_symmetry_equiv_pos_as_xyz
'+x,+y,+z'

loop_
_atom_site_label
_atom_site_type_symbol
_atom_site_fract_x
_atom_site_fract_y
_atom_site_fract_z
1	C	0.03076	0.267554	0.341865
2	C	0.050443	0.251396	0.009367
3	C	0.085983	0.268549	0.010912
4	C	0.103738	0.3043	0.008444
5	C	0.085673	0.322016	0.340644
6	C	0.05016	0.303398	0.34179
7	N	0.137929	0.321553	0.0065
8	H	0.038539	0.317226	0.340349
9	H	0.151263	0.311207	0.011381
10	H	0.150536	0.344685	0.331071
11	H	0.039009	0.225953	0.009668
12	H	0.181908	0.307624	0.283993
13	H	0.181208	0.375544	0.06132
14	C	0.142542	0.245231	0.29244
15	N	0.114643	0.247573	0.300527
16	C	0.103468	0.250353	0.008954
17	C	0.124218	0.252188	0.045684
18	N	0.154539	0.254924	0.0368
19	C	0.165188	0.251271	0.995106
20	H	0.149885	0.24604	0.259535
21	H	0.120519	0.258857	0.077305
22	C	0.122075	0.377575	0.306551
23	N	0.152823	0.404784	0.314759
24	C	0.164954	0.41767	0.023353
25	C	0.143493	0.400455	0.060197
26	N	0.115438	0.370388	0.052077
27	C	0.102798	0.357637	0.010248
28	H	0.117165	0.368098	0.274335
29	H	0.152087	0.405946	0.092791
30	C	0.03076	0.267554	0.675195
31	C	0.050443	0.251396	0.3427
32	C	0.085983	0.268549	0.344246
33	C	0.103738	0.3043	0.34178
34	C	0.085673	0.322016	0.673974
35	C	0.05016	0.303398	0.675124
36	N	0.137929	0.321553	0.339833
37	H	0.038539	0.317226	0.673682
38	H	0.151263	0.311207	0.344715
39	H	0.150536	0.344685	0.664405
40	H	0.039009	0.225953	0.343001
41	H	0.181908	0.307624	0.617327
42	H	0.181208	0.375544	0.394655
43	C	0.142542	0.245231	0.625774
44	N	0.114643	0.247573	0.633861
45	C	0.103468	0.250353	0.342286
46	C	0.124218	0.252188	0.379017
47	N	0.154539	0.254924	0.370132
48	C	0.165188	0.251271	0.328441
49	H	0.149885	0.24604	0.592869
50	H	0.120519	0.258857	0.410639
51	C	0.122075	0.377575	0.639886
52	N	0.152823	0.404784	0.648091
53	C	0.164954	0.41767	0.356686
54	C	0.143493	0.400455	0.393529
55	N	0.115438	0.370388	0.385411
56	C	0.102798	0.357637	0.343582
57	H	0.117165	0.368098	0.607666
58	H	0.152087	0.405946	0.426125
59	C	0.03076	0.267554	0.008529
60	C	0.050443	0.251396	0.676033
61	C	0.085983	0.268549	0.67758
62	C	0.103738	0.3043	0.67511
63	C	0.085673	0.322016	0.007308
64	C	0.05016	0.303398	0.008454
65	N	0.137929	0.321553	0.673167
66	H	0.038539	0.317226	0.007013
67	H	0.151263	0.311207	0.678048
68	H	0.150536	0.344685	0.997738
69	H	0.039009	0.225953	0.676335
70	H	0.181908	0.307624	0.950661
71	H	0.181208	0.375544	0.727985
72	C	0.142542	0.245231	0.959108
73	N	0.114643	0.247573	0.967195
74	C	0.103468	0.250353	0.675619
75	C	0.124218	0.252188	0.71235
76	N	0.154539	0.254924	0.703466
77	C	0.165188	0.251271	0.661772
78	H	0.149885	0.24604	0.9262
79	H	0.120519	0.258857	0.743969
80	C	0.122075	0.377575	0.973219
81	N	0.152823	0.404784	0.981425
82	C	0.164954	0.41767	0.690019
83	C	0.143493	0.400455	0.726862
84	N	0.115438	0.370388	0.718741
85	C	0.102798	0.357637	0.676915
86	H	0.117165	0.368098	0.941
87	H	0.152087	0.405946	0.759458
88	C	0.030759	0.767554	0.341865
89	C	0.050444	0.751396	0.009366
90	C	0.085983	0.768548	0.010914
91	C	0.103739	0.804299	0.008447
92	C	0.085673	0.822016	0.340647
93	C	0.050162	0.8034	0.34179
94	N	0.137929	0.821552	0.006507
95	H	0.03854	0.817228	0.340349
96	H	0.151264	0.811206	0.011392
97	H	0.150536	0.844685	0.331083
98	H	0.039009	0.725953	0.009665
99	H	0.181907	0.807629	0.284
100	H	0.181209	0.875548	0.06133
101	C	0.142545	0.745235	0.292436
102	N	0.114643	0.747575	0.300524
103	C	0.103469	0.750353	0.008952
104	C	0.124217	0.752182	0.045682
105	N	0.154538	0.75492	0.036798
106	C	0.165189	0.751273	0.995102
107	H	0.149889	0.746047	0.25953
108	H	0.120516	0.758848	0.077304
109	C	0.122077	0.877575	0.306554
110	N	0.152825	0.904783	0.314763
111	C	0.164954	0.91767	0.023357
112	C	0.143492	0.900454	0.060199
113	N	0.115438	0.87039	0.052079
114	C	0.102798	0.857636	0.010251
115	H	0.117167	0.868098	0.274338
116	H	0.152086	0.905948	0.092794
117	C	0.030759	0.767554	0.675199
118	C	0.050444	0.751396	0.3427
119	C	0.085983	0.768548	0.344246
120	C	0.103739	0.804299	0.341784
121	C	0.085673	0.822016	0.673977
122	C	0.050162	0.8034	0.675124
123	N	0.137929	0.821552	0.339843
124	H	0.03854	0.817228	0.673682
125	H	0.151264	0.811206	0.344725
126	H	0.150536	0.844685	0.664415
127	H	0.039009	0.725953	0.342998
128	H	0.181907	0.807629	0.617334
129	H	0.181209	0.875548	0.394662
130	C	0.142545	0.745235	0.625767
131	N	0.114643	0.747575	0.633858
132	C	0.103469	0.750353	0.342286
133	C	0.124217	0.752182	0.379013
134	N	0.154538	0.75492	0.370129
135	C	0.165189	0.751273	0.328437
136	H	0.149889	0.746047	0.592863
137	H	0.120516	0.758848	0.410636
138	C	0.122077	0.877575	0.639889
139	N	0.152825	0.904783	0.648095
140	C	0.164954	0.91767	0.356689
141	C	0.143492	0.900454	0.393532
142	N	0.115438	0.87039	0.385411
143	C	0.102798	0.857636	0.343585
144	H	0.117167	0.868098	0.60767
145	H	0.152086	0.905948	0.426128
146	C	0.030759	0.767554	0.008529
147	C	0.050444	0.751396	0.676033
148	C	0.085983	0.768548	0.67758
149	C	0.103739	0.804299	0.675117
150	C	0.085673	0.822016	0.007311
151	C	0.050162	0.8034	0.008458
152	N	0.137929	0.821552	0.673174
153	H	0.03854	0.817228	0.007016
154	H	0.151264	0.811206	0.678058
155	H	0.150536	0.844685	0.997748
156	H	0.039009	0.725953	0.676332
157	H	0.181907	0.807629	0.950664
158	H	0.181209	0.875548	0.727995
159	C	0.142545	0.745235	0.959101
160	N	0.114643	0.747575	0.967191
161	C	0.103469	0.750353	0.675619
162	C	0.124217	0.752182	0.712347
163	N	0.154538	0.75492	0.703463
164	C	0.165189	0.751273	0.661769
165	H	0.149889	0.746047	0.926196
166	H	0.120516	0.758848	0.743969
167	C	0.122077	0.877575	0.973219
168	N	0.152825	0.904783	0.981428
169	C	0.164954	0.91767	0.690023
170	C	0.143492	0.900454	0.726866
171	N	0.115438	0.87039	0.718745
172	C	0.102798	0.857636	0.676919
173	H	0.117167	0.868098	0.941003
174	H	0.152086	0.905948	0.759462
175	C	0.271646	0.249084	0.347004
176	C	0.272249	0.195863	0.03075
177	C	0.255558	0.213472	0.017989
178	C	0.253698	0.267144	0.339585
179	C	0.26986	0.302912	0.006483
180	C	0.25407	0.321463	0.993949
181	C	0.219372	0.303378	0.981534
182	C	0.200604	0.267895	0.322059
183	C	0.218107	0.251138	0.335027
184	N	0.203292	0.319544	0.965773
185	H	0.203737	0.226027	0.340437
186	H	0.213437	0.343478	0.963979
187	H	0.230445	0.199172	0.01253
188	H	0.294386	0.316618	0.015919
189	C	0.271847	0.026273	0.34174
190	C	0.255636	0.045923	0.341529
191	C	0.272676	0.081453	0.339545
192	H	0.230204	0.034482	0.342299
193	C	0.25374	0.489881	0.345149
194	C	0.218153	0.470341	0.016659
195	C	0.200513	0.435822	0.028202
196	C	0.218984	0.418617	0.033314
197	C	0.253752	0.435477	0.354671
198	C	0.269723	0.470093	0.343592
199	N	0.202682	0.385717	0.046385
200	H	0.294401	0.481003	0.335141
201	H	0.212286	0.371435	0.378108
202	H	0.203857	0.481333	0.013166
203	C	0.275207	0.408055	0.304947
204	N	0.272624	0.37751	0.299193
205	C	0.27149	0.35693	0.999967
206	C	0.274321	0.369829	0.04435
207	N	0.271698	0.397784	0.049971
208	C	0.271482	0.4177	0.015816
209	H	0.272066	0.419301	0.27696
210	H	0.270367	0.355052	0.07216
211	C	0.255848	0.119587	0.305809
212	N	0.25868	0.149886	0.315165
213	C	0.255578	0.160494	0.023835
214	C	0.24967	0.137657	0.059603
215	N	0.251993	0.109799	0.051017
216	C	0.254411	0.098862	0.008952
217	H	0.262049	0.11588	0.273887
218	H	0.250878	0.144971	0.092595
219	C	0.271646	0.249084	0.680335
220	C	0.272249	0.195863	0.364084
221	C	0.255558	0.213472	0.351323
222	C	0.253698	0.267144	0.672919
223	C	0.26986	0.302912	0.33982
224	C	0.25407	0.321463	0.327282
225	C	0.219372	0.303378	0.314868
226	C	0.200604	0.267895	0.655391
227	C	0.218107	0.251138	0.66836
228	N	0.203292	0.319544	0.299106
229	H	0.203737	0.226027	0.673771
230	H	0.213437	0.343478	0.297313
231	H	0.230445	0.199172	0.345864
232	H	0.294386	0.316618	0.349253
233	C	0.271847	0.026273	0.67507
234	C	0.255636	0.045923	0.674863
235	C	0.272676	0.081453	0.672878
236	H	0.230204	0.034482	0.675629
237	C	0.25374	0.489881	0.678482
238	C	0.218153	0.470341	0.349993
239	C	0.200513	0.435822	0.361537
240	C	0.218984	0.418617	0.366645
241	C	0.253752	0.435477	0.688004
242	C	0.269723	0.470093	0.676922
243	N	0.202682	0.385717	0.379719
244	H	0.294401	0.481003	0.668475
245	H	0.212286	0.371435	0.711441
246	H	0.203857	0.481333	0.346499
247	C	0.275207	0.408055	0.638281
248	N	0.272624	0.37751	0.632524
249	C	0.27149	0.35693	0.333299
250	C	0.274321	0.369829	0.377684
251	N	0.271698	0.397784	0.383304
252	C	0.271482	0.4177	0.349148
253	H	0.272066	0.419301	0.610292
254	H	0.270367	0.355052	0.405493
255	C	0.255848	0.119587	0.639143
256	N	0.25868	0.149886	0.648498
257	C	0.255578	0.160494	0.357167
258	C	0.24967	0.137657	0.392935
259	N	0.251993	0.109799	0.384349
260	C	0.254411	0.098862	0.342286
261	H	0.262049	0.11588	0.607218
262	H	0.250878	0.144971	0.425928
263	C	0.271646	0.249084	0.01367
264	C	0.272249	0.195863	0.697414
265	C	0.255558	0.213472	0.684656
266	C	0.253698	0.267144	0.006249
267	C	0.26986	0.302912	0.673153
268	C	0.25407	0.321463	0.660616
269	C	0.219372	0.303378	0.6482
270	C	0.200604	0.267895	0.988725
271	C	0.218107	0.251138	0.001694
272	N	0.203292	0.319544	0.63244
273	H	0.203737	0.226027	0.007104
274	H	0.213437	0.343478	0.630645
275	H	0.230445	0.199172	0.679195
276	H	0.294386	0.316618	0.682584
277	C	0.271847	0.026273	0.008403
278	C	0.255636	0.045923	0.008196
279	C	0.272676	0.081453	0.006212
280	H	0.230204	0.034482	0.008965
281	C	0.25374	0.489881	0.011816
282	C	0.218153	0.470341	0.683326
283	C	0.200513	0.435822	0.694867
284	C	0.218984	0.418617	0.699979
285	C	0.253752	0.435477	0.021339
286	C	0.269723	0.470093	0.010257
287	N	0.202682	0.385717	0.713049
288	H	0.294401	0.481003	0.001806
289	H	0.212286	0.371435	0.044774
290	H	0.203857	0.481333	0.679832
291	C	0.275207	0.408055	0.971615
292	N	0.272624	0.37751	0.965858
293	C	0.27149	0.35693	0.666633
294	C	0.274321	0.369829	0.711017
295	N	0.271698	0.397784	0.716638
296	C	0.271482	0.4177	0.682482
297	H	0.272066	0.419301	0.943625
298	H	0.270367	0.355052	0.738827
299	C	0.255848	0.119587	0.972476
300	N	0.25868	0.149886	0.981832
301	C	0.255578	0.160494	0.690501
302	C	0.24967	0.137657	0.726269
303	N	0.251993	0.109799	0.717683
304	C	0.254411	0.098862	0.675619
305	H	0.262049	0.11588	0.940552
306	H	0.250878	0.144971	0.759261
307	C	0.271645	0.749083	0.347001
308	C	0.27225	0.695864	0.030748
309	C	0.255559	0.713473	0.017986
310	C	0.253697	0.767143	0.339582
311	C	0.269861	0.802914	0.006483
312	C	0.254071	0.821464	0.993949
313	C	0.219372	0.80338	0.981537
314	C	0.200605	0.767897	0.322057
315	C	0.218108	0.75114	0.335024
316	N	0.203293	0.819548	0.965777
317	H	0.203738	0.726028	0.340434
318	H	0.213437	0.84348	0.963989
319	H	0.230446	0.699173	0.012527
320	H	0.294387	0.816619	0.015917
321	C	0.271846	0.526273	0.341736
322	C	0.255636	0.545924	0.341529
323	C	0.272678	0.581454	0.339548
324	H	0.230204	0.534483	0.342296
325	C	0.253741	0.989883	0.345152
326	C	0.218152	0.97034	0.016661
327	C	0.200511	0.935822	0.028206
328	C	0.218984	0.918616	0.033319
329	C	0.253752	0.935476	0.354674
330	C	0.269724	0.970095	0.343592
331	N	0.202683	0.885719	0.046393
332	H	0.294401	0.981002	0.335141
333	H	0.212289	0.871437	0.378118
334	H	0.203857	0.981335	0.013167
335	C	0.275207	0.908057	0.30495
336	N	0.272625	0.877512	0.299194
337	C	0.271491	0.856932	0.999967
338	C	0.274322	0.869829	0.044351
339	N	0.271698	0.897784	0.049973
340	C	0.271482	0.9177	0.015818
341	H	0.272066	0.919303	0.276962
342	H	0.270369	0.855053	0.072161
343	C	0.255849	0.619587	0.305808
344	N	0.258681	0.649887	0.315163
345	C	0.255578	0.660494	0.023833
346	C	0.249669	0.637657	0.059601
347	N	0.251993	0.6098	0.051016
348	C	0.254412	0.598862	0.008951
349	H	0.262052	0.615882	0.273886
350	H	0.250877	0.644972	0.092593
351	C	0.271645	0.749083	0.680331
352	C	0.27225	0.695864	0.364081
353	C	0.255559	0.713473	0.351319
354	C	0.253697	0.767143	0.672916
355	C	0.269861	0.802914	0.339816
356	C	0.254071	0.821464	0.327282
357	C	0.219372	0.80338	0.314869
358	C	0.200605	0.767897	0.655391
359	C	0.218108	0.75114	0.668357
360	N	0.203293	0.819548	0.299111
361	H	0.203738	0.726028	0.673767
362	H	0.213437	0.84348	0.297322
363	H	0.230446	0.699173	0.345861
364	H	0.294387	0.816619	0.34925
365	C	0.271846	0.526273	0.67507
366	C	0.255636	0.545924	0.674859
367	C	0.272678	0.581454	0.672878
368	H	0.230204	0.534483	0.675629
369	C	0.253741	0.989883	0.678486
370	C	0.218152	0.97034	0.349993
371	C	0.200511	0.935822	0.36154
372	C	0.218984	0.918616	0.366652
373	C	0.253752	0.935476	0.688008
374	C	0.269724	0.970095	0.676925
375	N	0.202683	0.885719	0.379726
376	H	0.294401	0.981002	0.668475
377	H	0.212289	0.871437	0.711451
378	H	0.203857	0.981335	0.346499
379	C	0.275207	0.908057	0.638281
380	N	0.272625	0.877512	0.632528
381	C	0.271491	0.856932	0.3333
382	C	0.274322	0.869829	0.377684
383	N	0.271698	0.897784	0.383304
384	C	0.271482	0.9177	0.349152
385	H	0.272066	0.919303	0.610295
386	H	0.270369	0.855053	0.405493
387	C	0.255849	0.619587	0.639143
388	N	0.258681	0.649887	0.648495
389	C	0.255578	0.660494	0.357167
390	C	0.249669	0.637657	0.392935
391	N	0.251993	0.6098	0.384349
392	C	0.254412	0.598862	0.342286
393	H	0.262052	0.615882	0.607218
394	H	0.250877	0.644972	0.425928
395	C	0.271645	0.749083	0.013666
396	C	0.27225	0.695864	0.697414
397	C	0.255559	0.713473	0.684653
398	C	0.253697	0.767143	0.006249
399	C	0.269861	0.802914	0.67315
400	C	0.254071	0.821464	0.660616
401	C	0.219372	0.80338	0.648203
402	C	0.200605	0.767897	0.988722
403	C	0.218108	0.75114	0.00169
404	N	0.203293	0.819548	0.632443
405	H	0.203738	0.726028	0.007097
406	H	0.213437	0.84348	0.630655
407	H	0.230446	0.699173	0.679195
408	H	0.294387	0.816619	0.682584
409	C	0.271846	0.526273	0.008403
410	C	0.255636	0.545924	0.008193
411	C	0.272678	0.581454	0.006212
412	H	0.230204	0.534483	0.008962
413	C	0.253741	0.989883	0.011818
414	C	0.218152	0.97034	0.683326
415	C	0.200511	0.935822	0.694874
416	C	0.218984	0.918616	0.699986
417	C	0.253752	0.935476	0.021342
418	C	0.269724	0.970095	0.010259
419	N	0.202683	0.885719	0.713059
420	H	0.294401	0.981002	0.001809
421	H	0.212289	0.871437	0.044784
422	H	0.203857	0.981335	0.679832
423	C	0.275207	0.908057	0.971615
424	N	0.272625	0.877512	0.965861
425	C	0.271491	0.856932	0.666633
426	C	0.274322	0.869829	0.711017
427	N	0.271698	0.897784	0.716638
428	C	0.271482	0.9177	0.682485
429	H	0.272066	0.919303	0.943629
430	H	0.270369	0.855053	0.738827
431	C	0.255849	0.619587	0.972473
432	N	0.258681	0.649887	0.981829
433	C	0.255578	0.660494	0.690498
434	C	0.249669	0.637657	0.726265
435	N	0.251993	0.6098	0.717683
436	C	0.254412	0.598862	0.675616
437	H	0.262052	0.615882	0.940552
438	H	0.250877	0.644972	0.759258
439	N	0.390249	0.198789	0.970848
440	H	0.37604	0.208468	0.9727
441	H	0.380174	0.177589	0.288534
442	C	0.307406	0.265172	0.346886
443	C	0.325894	0.249264	0.359172
444	C	0.307753	0.214476	0.037834
445	H	0.321164	0.289743	0.337669
446	N	0.323903	0.198186	0.052883
447	H	0.312022	0.176625	0.067538
448	H	0.347831	0.208154	0.387484
449	C	0.308455	0.099281	0.007779
450	C	0.32624	0.081282	0.008447
451	C	0.307687	0.045758	0.007667
452	N	0.325676	0.13348	0.00951
453	H	0.348908	0.146121	0.0178
454	H	0.315257	0.146795	0.338448
455	H	0.321597	0.034215	0.008336
456	C	0.374404	0.270395	0.308685
457	N	0.40244	0.26801	0.302463
458	C	0.412497	0.270092	0.047542
459	N	0.381869	0.267256	0.053609
460	C	0.361355	0.266673	0.019771
461	H	0.359771	0.267088	0.280916
462	C	0.404745	0.139551	0.28872
463	N	0.374667	0.111452	0.296576
464	C	0.36183	0.098506	0.004906
465	C	0.381827	0.117525	0.042113
466	N	0.409073	0.148295	0.034122
467	H	0.410316	0.148282	0.256188
468	H	0.372295	0.112505	0.074291
469	N	0.390249	0.198789	0.304183
470	H	0.37604	0.208468	0.306034
471	H	0.380174	0.177589	0.621866
472	C	0.307406	0.265172	0.680219
473	C	0.325894	0.249264	0.692506
474	C	0.307753	0.214476	0.371167
475	H	0.321164	0.289743	0.671002
476	N	0.323903	0.198186	0.386215
477	H	0.312022	0.176625	0.400869
478	H	0.347831	0.208154	0.720817
479	C	0.308455	0.099281	0.341112
480	C	0.32624	0.081282	0.34178
481	C	0.307687	0.045758	0.341
482	N	0.325676	0.13348	0.342842
483	H	0.348908	0.146121	0.351133
484	H	0.315257	0.146795	0.671783
485	H	0.321597	0.034215	0.341668
486	C	0.374404	0.270395	0.642019
487	N	0.40244	0.26801	0.635795
488	C	0.412497	0.270092	0.380876
489	N	0.381869	0.267256	0.386941
490	C	0.361355	0.266673	0.353104
491	H	0.359771	0.267088	0.614251
492	C	0.404745	0.139551	0.622053
493	N	0.374667	0.111452	0.629909
494	C	0.36183	0.098506	0.33824
495	C	0.381827	0.117525	0.375445
496	N	0.409073	0.148295	0.367456
497	H	0.410316	0.148282	0.589521
498	H	0.372295	0.112505	0.407623
499	N	0.390249	0.198789	0.637514
500	H	0.37604	0.208468	0.639367
501	H	0.380174	0.177589	0.9552
502	C	0.307406	0.265172	0.013552
503	C	0.325894	0.249264	0.02584
504	C	0.307753	0.214476	0.704501
505	H	0.321164	0.289743	0.004336
506	N	0.323903	0.198186	0.719549
507	H	0.312022	0.176625	0.734203
508	H	0.347831	0.208154	0.054152
509	C	0.308455	0.099281	0.674446
510	C	0.32624	0.081282	0.675114
511	C	0.307687	0.045758	0.674334
512	N	0.325676	0.13348	0.676176
513	H	0.348908	0.146121	0.684466
514	H	0.315257	0.146795	0.005116
515	H	0.321597	0.034215	0.675002
516	C	0.374404	0.270395	0.97535
517	N	0.40244	0.26801	0.969128
518	C	0.412497	0.270092	0.714209
519	N	0.381869	0.267256	0.720275
520	C	0.361355	0.266673	0.686437
521	H	0.359771	0.267088	0.947581
522	C	0.404745	0.139551	0.955386
523	N	0.374667	0.111452	0.963243
524	C	0.36183	0.098506	0.671572
525	C	0.381827	0.117525	0.708778
526	N	0.409073	0.148295	0.70079
527	H	0.410316	0.148282	0.922855
528	H	0.372295	0.112505	0.740957
529	N	0.390248	0.69879	0.970851
530	H	0.37604	0.708467	0.972704
531	H	0.380173	0.677589	0.288537
532	C	0.307407	0.765174	0.346882
533	C	0.325893	0.749264	0.359169
534	C	0.307753	0.714477	0.037833
535	H	0.321164	0.789742	0.337665
536	N	0.323904	0.698189	0.052884
537	H	0.312023	0.676627	0.06754
538	H	0.347829	0.708154	0.387487
539	C	0.308454	0.599281	0.007783
540	C	0.326241	0.581281	0.008447
541	C	0.307686	0.545758	0.007667
542	N	0.325676	0.633481	0.009514
543	H	0.348908	0.646122	0.017805
544	H	0.315258	0.646796	0.338453
545	H	0.321596	0.534215	0.008332
546	C	0.374404	0.770395	0.308682
547	N	0.40244	0.76801	0.302461
548	C	0.412498	0.770094	0.047541
549	N	0.381869	0.767256	0.053607
550	C	0.361355	0.766672	0.019769
551	H	0.359771	0.767088	0.280914
552	C	0.404744	0.639551	0.288721
553	N	0.374668	0.611453	0.296577
554	C	0.36183	0.598507	0.004906
555	C	0.381829	0.617526	0.042113
556	N	0.409075	0.648296	0.034123
557	H	0.410317	0.648284	0.256188
558	H	0.372295	0.612505	0.074292
559	N	0.390248	0.69879	0.304185
560	H	0.37604	0.708467	0.306037
561	H	0.380173	0.677589	0.62187
562	C	0.307407	0.765174	0.680216
563	C	0.325893	0.749264	0.692502
564	C	0.307753	0.714477	0.371167
565	H	0.321164	0.789742	0.670999
566	N	0.323904	0.698189	0.386218
567	H	0.312023	0.676627	0.400873
568	H	0.347829	0.708154	0.720821
569	C	0.308454	0.599281	0.341115
570	C	0.326241	0.581281	0.341784
571	C	0.307686	0.545758	0.341
572	N	0.325676	0.633481	0.342845
573	H	0.348908	0.646122	0.351139
574	H	0.315258	0.646796	0.671786
575	H	0.321596	0.534215	0.341668
576	C	0.374404	0.770395	0.642016
577	N	0.40244	0.76801	0.635795
578	C	0.412498	0.770094	0.380876
579	N	0.381869	0.767256	0.386941
580	C	0.361355	0.766672	0.353104
581	H	0.359771	0.767088	0.614247
582	C	0.404744	0.639551	0.622053
583	N	0.374668	0.611453	0.629909
584	C	0.36183	0.598507	0.33824
585	C	0.381829	0.617526	0.375448
586	N	0.409075	0.648296	0.367456
587	H	0.410317	0.648284	0.589521
588	H	0.372295	0.612505	0.407627
589	N	0.390248	0.69879	0.637518
590	H	0.37604	0.708467	0.63937
591	H	0.380173	0.677589	0.955203
592	C	0.307407	0.765174	0.013549
593	C	0.325893	0.749264	0.025837
594	C	0.307753	0.714477	0.704497
595	H	0.321164	0.789742	0.004333
596	N	0.323904	0.698189	0.719549
597	H	0.312023	0.676627	0.734206
598	H	0.347829	0.708154	0.054155
599	C	0.308454	0.599281	0.674449
600	C	0.326241	0.581281	0.675114
601	C	0.307686	0.545758	0.674334
602	N	0.325676	0.633481	0.676179
603	H	0.348908	0.646122	0.684473
604	H	0.315258	0.646796	0.00512
605	H	0.321596	0.534215	0.674999
606	C	0.374404	0.770395	0.97535
607	N	0.40244	0.76801	0.969128
608	C	0.412498	0.770094	0.714206
609	N	0.381869	0.767256	0.720275
610	C	0.361355	0.766672	0.686434
611	H	0.359771	0.767088	0.947581
612	C	0.404744	0.639551	0.955386
613	N	0.374668	0.611453	0.963243
614	C	0.36183	0.598507	0.671572
615	C	0.381829	0.617526	0.708778
616	N	0.409075	0.648296	0.70079
617	H	0.410317	0.648284	0.922855
618	H	0.372295	0.612505	0.740957
619	C	0.494376	0.249407	0.338619
620	C	0.474881	0.213887	0.332966
621	C	0.44031	0.196345	0.321705
622	C	0.423116	0.214889	0.984037
623	C	0.439971	0.249503	0.996802
624	C	0.474593	0.265355	0.007769
625	H	0.485974	0.199613	0.335362
626	H	0.485506	0.289888	0.017038
627	C	0.422234	0.267211	0.002993
628	H	0.423606	0.266314	0.075172
629	C	0.422153	0.160735	0.992345
630	C	0.494376	0.249407	0.671952
631	C	0.474881	0.213887	0.666301
632	C	0.44031	0.196345	0.655039
633	C	0.423116	0.214889	0.317369
634	C	0.439971	0.249503	0.330134
635	C	0.474593	0.265355	0.341102
636	H	0.485974	0.199613	0.668696
637	H	0.485506	0.289888	0.350369
638	C	0.422234	0.267211	0.336325
639	H	0.423606	0.266314	0.408505
640	C	0.422153	0.160735	0.325679
641	C	0.494376	0.249407	0.005286
642	C	0.474881	0.213887	0.999631
643	C	0.44031	0.196345	0.988372
644	C	0.423116	0.214889	0.650703
645	C	0.439971	0.249503	0.663468
646	C	0.474593	0.265355	0.674435
647	H	0.485974	0.199613	0.002029
648	H	0.485506	0.289888	0.683703
649	C	0.422234	0.267211	0.669659
650	H	0.423606	0.266314	0.741839
651	C	0.422153	0.160735	0.659011
652	C	0.494377	0.749406	0.338619
653	C	0.47488	0.713886	0.332967
654	C	0.44031	0.696345	0.321706
655	C	0.423115	0.714888	0.984037
656	C	0.439973	0.749504	0.996802
657	C	0.474594	0.765354	0.007766
658	H	0.485974	0.699614	0.335363
659	H	0.485505	0.789887	0.017036
660	C	0.422235	0.767213	0.002989
661	H	0.423607	0.766316	0.075171
662	C	0.422154	0.660734	0.992345
663	C	0.494377	0.749406	0.671952
664	C	0.47488	0.713886	0.666301
665	C	0.44031	0.696345	0.655039
666	C	0.423115	0.714888	0.31737
667	C	0.439973	0.749504	0.330134
668	C	0.474594	0.765354	0.341102
669	H	0.485974	0.699614	0.668696
670	H	0.485505	0.789887	0.350369
671	C	0.422235	0.767213	0.336324
672	H	0.423607	0.766316	0.408505
673	C	0.422154	0.660734	0.325679
674	C	0.494377	0.749406	0.005286
675	C	0.47488	0.713886	0.999631
676	C	0.44031	0.696345	0.988372
677	C	0.423115	0.714888	0.650703
678	C	0.439973	0.749504	0.663468
679	C	0.474594	0.765354	0.674432
680	H	0.485974	0.699614	0.002029
681	H	0.485505	0.789887	0.683703
682	C	0.422235	0.767213	0.669656
683	H	0.423607	0.766316	0.741836
684	C	0.422154	0.660734	0.659011
685	C	0.994376	0.249407	0.338619
686	C	0.974881	0.213887	0.332966
687	C	0.94031	0.196345	0.321705
688	C	0.923116	0.214889	0.984037
689	C	0.939974	0.249503	0.996802
690	C	0.974593	0.265355	0.007769
691	H	0.985974	0.199613	0.335362
692	N	0.890249	0.198789	0.970848
693	C	0.53076	0.267554	0.341865
694	C	0.550442	0.251396	0.009367
695	C	0.585983	0.268549	0.010912
696	C	0.603737	0.3043	0.008444
697	C	0.585674	0.322016	0.340644
698	C	0.550159	0.303398	0.34179
699	N	0.637929	0.321553	0.0065
700	H	0.538539	0.317226	0.340349
701	H	0.651264	0.311207	0.011381
702	H	0.650537	0.344685	0.331071
703	H	0.87604	0.208468	0.9727
704	H	0.880174	0.177589	0.288534
705	H	0.985506	0.289888	0.017038
706	H	0.539009	0.225953	0.009668
707	C	0.771646	0.249084	0.347004
708	C	0.807406	0.265172	0.346886
709	C	0.825894	0.249264	0.359172
710	C	0.807754	0.214476	0.037834
711	C	0.77225	0.195863	0.03075
712	C	0.755558	0.213472	0.017989
713	H	0.821164	0.289743	0.337669
714	N	0.823903	0.198186	0.052883
715	C	0.753698	0.267144	0.339585
716	C	0.76986	0.302912	0.006483
717	C	0.75407	0.321463	0.993949
718	C	0.719371	0.303378	0.981534
719	C	0.700604	0.267895	0.322059
720	C	0.718108	0.251138	0.335027
721	N	0.703292	0.319544	0.965773
722	H	0.703738	0.226027	0.340437
723	H	0.713437	0.343478	0.963979
724	H	0.681907	0.307624	0.283993
725	H	0.812022	0.176625	0.067538
726	H	0.847831	0.208154	0.387484
727	H	0.730445	0.199172	0.01253
728	H	0.794385	0.316618	0.015919
729	C	0.771847	0.026273	0.34174
730	C	0.755636	0.045923	0.341529
731	C	0.772676	0.081453	0.339545
732	C	0.808455	0.099281	0.007779
733	C	0.82624	0.081282	0.008447
734	C	0.807687	0.045758	0.007667
735	H	0.730203	0.034482	0.342299
736	N	0.825676	0.13348	0.00951
737	C	0.75374	0.489881	0.345149
738	C	0.718153	0.470341	0.016659
739	C	0.700512	0.435822	0.028202
740	C	0.718985	0.418617	0.033314
741	C	0.753752	0.435477	0.354671
742	C	0.769724	0.470093	0.343592
743	N	0.702682	0.385717	0.046385
744	H	0.794401	0.481003	0.335141
745	H	0.681207	0.375544	0.06132
746	H	0.712286	0.371435	0.378108
747	H	0.848908	0.146121	0.0178
748	H	0.815257	0.146795	0.338448
749	H	0.821597	0.034215	0.008336
750	H	0.703857	0.481333	0.013166
751	C	0.642543	0.245231	0.29244
752	N	0.614644	0.247573	0.300527
753	C	0.603468	0.250353	0.008954
754	C	0.624217	0.252188	0.045684
755	N	0.654539	0.254924	0.0368
756	C	0.665188	0.251271	0.995106
757	H	0.649885	0.24604	0.259535
758	H	0.62052	0.258857	0.077305
759	C	0.775207	0.408055	0.304947
760	N	0.772624	0.37751	0.299193
761	C	0.77149	0.35693	0.999967
762	C	0.774321	0.369829	0.04435
763	N	0.771699	0.397784	0.049971
764	C	0.771482	0.4177	0.015816
765	H	0.772065	0.419301	0.27696
766	H	0.770368	0.355052	0.07216
767	C	0.622075	0.377575	0.306551
768	N	0.652823	0.404784	0.314759
769	C	0.664954	0.41767	0.023353
770	C	0.643492	0.400455	0.060197
771	N	0.615438	0.370388	0.052077
772	C	0.602799	0.357637	0.010248
773	H	0.617165	0.368098	0.274335
774	H	0.652087	0.405946	0.092791
775	C	0.874404	0.270395	0.308685
776	N	0.90244	0.26801	0.302463
777	C	0.922234	0.267211	0.002993
778	C	0.912497	0.270092	0.047542
779	N	0.881869	0.267256	0.053609
780	C	0.861355	0.266673	0.019771
781	H	0.859771	0.267088	0.280916
782	H	0.923606	0.266314	0.075172
783	C	0.755848	0.119587	0.305809
784	N	0.758679	0.149886	0.315165
785	C	0.755579	0.160494	0.023835
786	C	0.749671	0.137657	0.059603
787	N	0.751994	0.109799	0.051017
788	C	0.754411	0.098862	0.008952
789	H	0.762048	0.11588	0.273887
790	H	0.750879	0.144971	0.092595
791	C	0.904745	0.139551	0.28872
792	N	0.874667	0.111452	0.296576
793	C	0.86183	0.098506	0.004906
794	C	0.881827	0.117525	0.042113
795	N	0.909073	0.148295	0.034122
796	C	0.922153	0.160735	0.992345
797	H	0.910316	0.148282	0.256188
798	H	0.872295	0.112505	0.074291
799	C	0.994376	0.249407	0.671952
800	C	0.974881	0.213887	0.666301
801	C	0.94031	0.196345	0.655039
802	C	0.923116	0.214889	0.317369
803	C	0.939974	0.249503	0.330134
804	C	0.974593	0.265355	0.341102
805	H	0.985974	0.199613	0.668696
806	N	0.890249	0.198789	0.304183
807	C	0.53076	0.267554	0.675195
808	C	0.550442	0.251396	0.3427
809	C	0.585983	0.268549	0.344246
810	C	0.603737	0.3043	0.34178
811	C	0.585674	0.322016	0.673974
812	C	0.550159	0.303398	0.675124
813	N	0.637929	0.321553	0.339833
814	H	0.538539	0.317226	0.673682
815	H	0.651264	0.311207	0.344715
816	H	0.650537	0.344685	0.664405
817	H	0.87604	0.208468	0.306034
818	H	0.880174	0.177589	0.621866
819	H	0.985506	0.289888	0.350369
820	H	0.539009	0.225953	0.343001
821	C	0.771646	0.249084	0.680335
822	C	0.807406	0.265172	0.680219
823	C	0.825894	0.249264	0.692506
824	C	0.807754	0.214476	0.371167
825	C	0.77225	0.195863	0.364084
826	C	0.755558	0.213472	0.351323
827	H	0.821164	0.289743	0.671002
828	N	0.823903	0.198186	0.386215
829	C	0.753698	0.267144	0.672919
830	C	0.76986	0.302912	0.33982
831	C	0.75407	0.321463	0.327282
832	C	0.719371	0.303378	0.314868
833	C	0.700604	0.267895	0.655391
834	C	0.718108	0.251138	0.66836
835	N	0.703292	0.319544	0.299106
836	H	0.703738	0.226027	0.673771
837	H	0.713437	0.343478	0.297313
838	H	0.681907	0.307624	0.617327
839	H	0.812022	0.176625	0.400869
840	H	0.847831	0.208154	0.720817
841	H	0.730445	0.199172	0.345864
842	H	0.794385	0.316618	0.349253
843	C	0.771847	0.026273	0.67507
844	C	0.755636	0.045923	0.674863
845	C	0.772676	0.081453	0.672878
846	C	0.808455	0.099281	0.341112
847	C	0.82624	0.081282	0.34178
848	C	0.807687	0.045758	0.341
849	H	0.730203	0.034482	0.675629
850	N	0.825676	0.13348	0.342842
851	C	0.75374	0.489881	0.678482
852	C	0.718153	0.470341	0.349993
853	C	0.700512	0.435822	0.361537
854	C	0.718985	0.418617	0.366645
855	C	0.753752	0.435477	0.688004
856	C	0.769724	0.470093	0.676922
857	N	0.702682	0.385717	0.379719
858	H	0.794401	0.481003	0.668475
859	H	0.681207	0.375544	0.394655
860	H	0.712286	0.371435	0.711441
861	H	0.848908	0.146121	0.351133
862	H	0.815257	0.146795	0.671783
863	H	0.821597	0.034215	0.341668
864	H	0.703857	0.481333	0.346499
865	C	0.642543	0.245231	0.625774
866	N	0.614644	0.247573	0.633861
867	C	0.603468	0.250353	0.342286
868	C	0.624217	0.252188	0.379017
869	N	0.654539	0.254924	0.370132
870	C	0.665188	0.251271	0.328441
871	H	0.649885	0.24604	0.592869
872	H	0.62052	0.258857	0.410639
873	C	0.775207	0.408055	0.638281
874	N	0.772624	0.37751	0.632524
875	C	0.77149	0.35693	0.333299
876	C	0.774321	0.369829	0.377684
877	N	0.771699	0.397784	0.383304
878	C	0.771482	0.4177	0.349148
879	H	0.772065	0.419301	0.610292
880	H	0.770368	0.355052	0.405493
881	C	0.622075	0.377575	0.639886
882	N	0.652823	0.404784	0.648091
883	C	0.664954	0.41767	0.356686
884	C	0.643492	0.400455	0.393529
885	N	0.615438	0.370388	0.385411
886	C	0.602799	0.357637	0.343582
887	H	0.617165	0.368098	0.607666
888	H	0.652087	0.405946	0.426125
889	C	0.874404	0.270395	0.642019
890	N	0.90244	0.26801	0.635795
891	C	0.922234	0.267211	0.336325
892	C	0.912497	0.270092	0.380876
893	N	0.881869	0.267256	0.386941
894	C	0.861355	0.266673	0.353104
895	H	0.859771	0.267088	0.614251
896	H	0.923606	0.266314	0.408505
897	C	0.755848	0.119587	0.639143
898	N	0.758679	0.149886	0.648498
899	C	0.755579	0.160494	0.357167
900	C	0.749671	0.137657	0.392935
901	N	0.751994	0.109799	0.384349
902	C	0.754411	0.098862	0.342286
903	H	0.762048	0.11588	0.607218
904	H	0.750879	0.144971	0.425928
905	C	0.904745	0.139551	0.622053
906	N	0.874667	0.111452	0.629909
907	C	0.86183	0.098506	0.33824
908	C	0.881827	0.117525	0.375445
909	N	0.909073	0.148295	0.367456
910	C	0.922153	0.160735	0.325679
911	H	0.910316	0.148282	0.589521
912	H	0.872295	0.112505	0.407623
913	C	0.994376	0.249407	0.005286
914	C	0.974881	0.213887	0.999631
915	C	0.94031	0.196345	0.988372
916	C	0.923116	0.214889	0.650703
917	C	0.939974	0.249503	0.663468
918	C	0.974593	0.265355	0.674435
919	H	0.985974	0.199613	0.002029
920	N	0.890249	0.198789	0.637514
921	C	0.53076	0.267554	0.008529
922	C	0.550442	0.251396	0.676033
923	C	0.585983	0.268549	0.67758
924	C	0.603737	0.3043	0.67511
925	C	0.585674	0.322016	0.007308
926	C	0.550159	0.303398	0.008454
927	N	0.637929	0.321553	0.673167
928	H	0.538539	0.317226	0.007013
929	H	0.651264	0.311207	0.678048
930	H	0.650537	0.344685	0.997738
931	H	0.87604	0.208468	0.639367
932	H	0.880174	0.177589	0.9552
933	H	0.985506	0.289888	0.683703
934	H	0.539009	0.225953	0.676335
935	C	0.771646	0.249084	0.01367
936	C	0.807406	0.265172	0.013552
937	C	0.825894	0.249264	0.02584
938	C	0.807754	0.214476	0.704501
939	C	0.77225	0.195863	0.697414
940	C	0.755558	0.213472	0.684656
941	H	0.821164	0.289743	0.004336
942	N	0.823903	0.198186	0.719549
943	C	0.753698	0.267144	0.006249
944	C	0.76986	0.302912	0.673153
945	C	0.75407	0.321463	0.660616
946	C	0.719371	0.303378	0.6482
947	C	0.700604	0.267895	0.988725
948	C	0.718108	0.251138	0.001694
949	N	0.703292	0.319544	0.63244
950	H	0.703738	0.226027	0.007104
951	H	0.713437	0.343478	0.630645
952	H	0.681907	0.307624	0.950661
953	H	0.812022	0.176625	0.734203
954	H	0.847831	0.208154	0.054152
955	H	0.730445	0.199172	0.679195
956	H	0.794385	0.316618	0.682584
957	C	0.771847	0.026273	0.008403
958	C	0.755636	0.045923	0.008196
959	C	0.772676	0.081453	0.006212
960	C	0.808455	0.099281	0.674446
961	C	0.82624	0.081282	0.675114
962	C	0.807687	0.045758	0.674334
963	H	0.730203	0.034482	0.008965
964	N	0.825676	0.13348	0.676176
965	C	0.75374	0.489881	0.011816
966	C	0.718153	0.470341	0.683326
967	C	0.700512	0.435822	0.694867
968	C	0.718985	0.418617	0.699979
969	C	0.753752	0.435477	0.021339
970	C	0.769724	0.470093	0.010257
971	N	0.702682	0.385717	0.713049
972	H	0.794401	0.481003	0.001806
973	H	0.681207	0.375544	0.727985
974	H	0.712286	0.371435	0.044774
975	H	0.848908	0.146121	0.684466
976	H	0.815257	0.146795	0.005116
977	H	0.821597	0.034215	0.675002
978	H	0.703857	0.481333	0.679832
979	C	0.642543	0.245231	0.959108
980	N	0.614644	0.247573	0.967195
981	C	0.603468	0.250353	0.675619
982	C	0.624217	0.252188	0.71235
983	N	0.654539	0.254924	0.703466
984	C	0.665188	0.251271	0.661772
985	H	0.649885	0.24604	0.9262
986	H	0.62052	0.258857	0.743969
987	C	0.775207	0.408055	0.971615
988	N	0.772624	0.37751	0.965858
989	C	0.77149	0.35693	0.666633
990	C	0.774321	0.369829	0.711017
991	N	0.771699	0.397784	0.716638
992	C	0.771482	0.4177	0.682482
993	H	0.772065	0.419301	0.943625
994	H	0.770368	0.355052	0.738827
995	C	0.622075	0.377575	0.973219
996	N	0.652823	0.404784	0.981425
997	C	0.664954	0.41767	0.690019
998	C	0.643492	0.400455	0.726862
999	N	0.615438	0.370388	0.718741
1000	C	0.602799	0.357637	0.676915
1001	H	0.617165	0.368098	0.941
1002	H	0.652087	0.405946	0.759458
1003	C	0.874404	0.270395	0.97535
1004	N	0.90244	0.26801	0.969128
1005	C	0.922234	0.267211	0.669659
1006	C	0.912497	0.270092	0.714209
1007	N	0.881869	0.267256	0.720275
1008	C	0.861355	0.266673	0.686437
1009	H	0.859771	0.267088	0.947581
1010	H	0.923606	0.266314	0.741839
1011	C	0.755848	0.119587	0.972476
1012	N	0.758679	0.149886	0.981832
1013	C	0.755579	0.160494	0.690501
1014	C	0.749671	0.137657	0.726269
1015	N	0.751994	0.109799	0.717683
1016	C	0.754411	0.098862	0.675619
1017	H	0.762048	0.11588	0.940552
1018	H	0.750879	0.144971	0.759261
1019	C	0.904745	0.139551	0.955386
1020	N	0.874667	0.111452	0.963243
1021	C	0.86183	0.098506	0.671572
1022	C	0.881827	0.117525	0.708778
1023	N	0.909073	0.148295	0.70079
1024	C	0.922153	0.160735	0.659011
1025	H	0.910316	0.148282	0.922855
1026	H	0.872295	0.112505	0.740957
1027	C	0.994376	0.749406	0.338619
1028	C	0.97488	0.713886	0.332967
1029	C	0.94031	0.696345	0.321706
1030	C	0.923115	0.714888	0.984037
1031	C	0.939974	0.749504	0.996802
1032	C	0.974595	0.765354	0.007766
1033	H	0.985975	0.699614	0.335363
1034	N	0.890249	0.69879	0.970851
1035	C	0.53076	0.767554	0.341865
1036	C	0.550443	0.751396	0.009366
1037	C	0.585983	0.768548	0.010914
1038	C	0.603739	0.804299	0.008447
1039	C	0.585674	0.822016	0.340647
1040	C	0.550162	0.8034	0.34179
1041	N	0.637929	0.821552	0.006507
1042	H	0.538541	0.817228	0.340349
1043	H	0.651264	0.811206	0.011392
1044	H	0.650536	0.844685	0.331083
1045	H	0.87604	0.708467	0.972704
1046	H	0.880174	0.677589	0.288537
1047	H	0.985506	0.789887	0.017036
1048	H	0.539009	0.725953	0.009665
1049	C	0.771646	0.749083	0.347001
1050	C	0.807407	0.765174	0.346882
1051	C	0.825894	0.749264	0.359169
1052	C	0.807754	0.714477	0.037833
1053	C	0.772251	0.695864	0.030748
1054	C	0.755559	0.713473	0.017986
1055	H	0.821164	0.789742	0.337665
1056	N	0.823904	0.698189	0.052884
1057	C	0.753698	0.767143	0.339582
1058	C	0.769861	0.802914	0.006483
1059	C	0.754071	0.821464	0.993949
1060	C	0.719372	0.80338	0.981537
1061	C	0.700605	0.767897	0.322057
1062	C	0.718109	0.75114	0.335024
1063	N	0.703292	0.819548	0.965777
1064	H	0.703739	0.726028	0.340434
1065	H	0.713438	0.84348	0.963989
1066	H	0.681907	0.807629	0.284
1067	H	0.812023	0.676627	0.06754
1068	H	0.847829	0.708154	0.387487
1069	H	0.730445	0.699173	0.012527
1070	H	0.794388	0.816619	0.015917
1071	C	0.771847	0.526273	0.341736
1072	C	0.755636	0.545924	0.341529
1073	C	0.772677	0.581454	0.339548
1074	C	0.808455	0.599281	0.007783
1075	C	0.82624	0.581281	0.008447
1076	C	0.807687	0.545758	0.007667
1077	H	0.730203	0.534483	0.342296
1078	N	0.825677	0.633481	0.009514
1079	C	0.753741	0.989883	0.345152
1080	C	0.718152	0.97034	0.016661
1081	C	0.700514	0.935822	0.028206
1082	C	0.718984	0.918616	0.033319
1083	C	0.753752	0.935476	0.354674
1084	C	0.769725	0.970095	0.343592
1085	N	0.702683	0.885719	0.046393
1086	H	0.794401	0.981002	0.335141
1087	H	0.681209	0.875548	0.06133
1088	H	0.712289	0.871437	0.378118
1089	H	0.848909	0.646122	0.017805
1090	H	0.815258	0.646796	0.338453
1091	H	0.821597	0.534215	0.008332
1092	H	0.703858	0.981335	0.013167
1093	C	0.642545	0.745235	0.292436
1094	N	0.614643	0.747575	0.300524
1095	C	0.603469	0.750353	0.008952
1096	C	0.624217	0.752182	0.045682
1097	N	0.654538	0.75492	0.036798
1098	C	0.665189	0.751273	0.995102
1099	H	0.649889	0.746047	0.25953
1100	H	0.620516	0.758848	0.077304
1101	C	0.775208	0.908057	0.30495
1102	N	0.772625	0.877512	0.299194
1103	C	0.771491	0.856932	0.999967
1104	C	0.774322	0.869829	0.044351
1105	N	0.771699	0.897784	0.049973
1106	C	0.771482	0.9177	0.015818
1107	H	0.772066	0.919303	0.276962
1108	H	0.770369	0.855053	0.072161
1109	C	0.622076	0.877575	0.306554
1110	N	0.652824	0.904783	0.314763
1111	C	0.664955	0.91767	0.023357
1112	C	0.643492	0.900454	0.060199
1113	N	0.615439	0.87039	0.052079
1114	C	0.602799	0.857636	0.010251
1115	H	0.617167	0.868098	0.274338
1116	H	0.652086	0.905948	0.092794
1117	C	0.874404	0.770395	0.308682
1118	N	0.902439	0.76801	0.302461
1119	C	0.922235	0.767213	0.002989
1120	C	0.912498	0.770094	0.047541
1121	N	0.881868	0.767256	0.053607
1122	C	0.861354	0.766672	0.019769
1123	H	0.85977	0.767088	0.280914
1124	H	0.923607	0.766316	0.075171
1125	C	0.755849	0.619587	0.305808
1126	N	0.758682	0.649887	0.315163
1127	C	0.755579	0.660494	0.023833
1128	C	0.749669	0.637657	0.059601
1129	N	0.751992	0.6098	0.051016
1130	C	0.754411	0.598862	0.008951
1131	H	0.762051	0.615882	0.273886
1132	H	0.750877	0.644972	0.092593
1133	C	0.904745	0.639551	0.288721
1134	N	0.874667	0.611453	0.296577
1135	C	0.861831	0.598507	0.004906
1136	C	0.88183	0.617526	0.042113
1137	N	0.909076	0.648296	0.034123
1138	C	0.922153	0.660734	0.992345
1139	H	0.910317	0.648284	0.256188
1140	H	0.872295	0.612505	0.074292
1141	C	0.994376	0.749406	0.671952
1142	C	0.97488	0.713886	0.666301
1143	C	0.94031	0.696345	0.655039
1144	C	0.923115	0.714888	0.31737
1145	C	0.939974	0.749504	0.330134
1146	C	0.974595	0.765354	0.341102
1147	H	0.985975	0.699614	0.668696
1148	N	0.890249	0.69879	0.304185
1149	C	0.53076	0.767554	0.675199
1150	C	0.550443	0.751396	0.3427
1151	C	0.585983	0.768548	0.344246
1152	C	0.603739	0.804299	0.341784
1153	C	0.585674	0.822016	0.673977
1154	C	0.550162	0.8034	0.675124
1155	N	0.637929	0.821552	0.339843
1156	H	0.538541	0.817228	0.673682
1157	H	0.651264	0.811206	0.344725
1158	H	0.650536	0.844685	0.664415
1159	H	0.87604	0.708467	0.306037
1160	H	0.880174	0.677589	0.62187
1161	H	0.985506	0.789887	0.350369
1162	H	0.539009	0.725953	0.342998
1163	C	0.771646	0.749083	0.680331
1164	C	0.807407	0.765174	0.680216
1165	C	0.825894	0.749264	0.692502
1166	C	0.807754	0.714477	0.371167
1167	C	0.772251	0.695864	0.364081
1168	C	0.755559	0.713473	0.351319
1169	H	0.821164	0.789742	0.670999
1170	N	0.823904	0.698189	0.386218
1171	C	0.753698	0.767143	0.672916
1172	C	0.769861	0.802914	0.339816
1173	C	0.754071	0.821464	0.327282
1174	C	0.719372	0.80338	0.314869
1175	C	0.700605	0.767897	0.655391
1176	C	0.718109	0.75114	0.668357
1177	N	0.703292	0.819548	0.299111
1178	H	0.703739	0.726028	0.673767
1179	H	0.713438	0.84348	0.297322
1180	H	0.681907	0.807629	0.617334
1181	H	0.812023	0.676627	0.400873
1182	H	0.847829	0.708154	0.720821
1183	H	0.730445	0.699173	0.345861
1184	H	0.794388	0.816619	0.34925
1185	C	0.771847	0.526273	0.67507
1186	C	0.755636	0.545924	0.674859
1187	C	0.772677	0.581454	0.672878
1188	C	0.808455	0.599281	0.341115
1189	C	0.82624	0.581281	0.341784
1190	C	0.807687	0.545758	0.341
1191	H	0.730203	0.534483	0.675629
1192	N	0.825677	0.633481	0.342845
1193	C	0.753741	0.989883	0.678486
1194	C	0.718152	0.97034	0.349993
1195	C	0.700514	0.935822	0.36154
1196	C	0.718984	0.918616	0.366652
1197	C	0.753752	0.935476	0.688008
1198	C	0.769725	0.970095	0.676925
1199	N	0.702683	0.885719	0.379726
1200	H	0.794401	0.981002	0.668475
1201	H	0.681209	0.875548	0.394662
1202	H	0.712289	0.871437	0.711451
1203	H	0.848909	0.646122	0.351139
1204	H	0.815258	0.646796	0.671786
1205	H	0.821597	0.534215	0.341668
1206	H	0.703858	0.981335	0.346499
1207	C	0.642545	0.745235	0.625767
1208	N	0.614643	0.747575	0.633858
1209	C	0.603469	0.750353	0.342286
1210	C	0.624217	0.752182	0.379013
1211	N	0.654538	0.75492	0.370129
1212	C	0.665189	0.751273	0.328437
1213	H	0.649889	0.746047	0.592863
1214	H	0.620516	0.758848	0.410636
1215	C	0.775208	0.908057	0.638281
1216	N	0.772625	0.877512	0.632528
1217	C	0.771491	0.856932	0.3333
1218	C	0.774322	0.869829	0.377684
1219	N	0.771699	0.897784	0.383304
1220	C	0.771482	0.9177	0.349152
1221	H	0.772066	0.919303	0.610295
1222	H	0.770369	0.855053	0.405493
1223	C	0.622076	0.877575	0.639889
1224	N	0.652824	0.904783	0.648095
1225	C	0.664955	0.91767	0.356689
1226	C	0.643492	0.900454	0.393532
1227	N	0.615439	0.87039	0.385411
1228	C	0.602799	0.857636	0.343585
1229	H	0.617167	0.868098	0.60767
1230	H	0.652086	0.905948	0.426128
1231	C	0.874404	0.770395	0.642016
1232	N	0.902439	0.76801	0.635795
1233	C	0.922235	0.767213	0.336324
1234	C	0.912498	0.770094	0.380876
1235	N	0.881868	0.767256	0.386941
1236	C	0.861354	0.766672	0.353104
1237	H	0.85977	0.767088	0.614247
1238	H	0.923607	0.766316	0.408505
1239	C	0.755849	0.619587	0.639143
1240	N	0.758682	0.649887	0.648495
1241	C	0.755579	0.660494	0.357167
1242	C	0.749669	0.637657	0.392935
1243	N	0.751992	0.6098	0.384349
1244	C	0.754411	0.598862	0.342286
1245	H	0.762051	0.615882	0.607218
1246	H	0.750877	0.644972	0.425928
1247	C	0.904745	0.639551	0.622053
1248	N	0.874667	0.611453	0.629909
1249	C	0.861831	0.598507	0.33824
1250	C	0.88183	0.617526	0.375448
1251	N	0.909076	0.648296	0.367456
1252	C	0.922153	0.660734	0.325679
1253	H	0.910317	0.648284	0.589521
1254	H	0.872295	0.612505	0.407627
1255	C	0.994376	0.749406	0.005286
1256	C	0.97488	0.713886	0.999631
1257	C	0.94031	0.696345	0.988372
1258	C	0.923115	0.714888	0.650703
1259	C	0.939974	0.749504	0.663468
1260	C	0.974595	0.765354	0.674432
1261	H	0.985975	0.699614	0.002029
1262	N	0.890249	0.69879	0.637518
1263	C	0.53076	0.767554	0.008529
1264	C	0.550443	0.751396	0.676033
1265	C	0.585983	0.768548	0.67758
1266	C	0.603739	0.804299	0.675117
1267	C	0.585674	0.822016	0.007311
1268	C	0.550162	0.8034	0.008458
1269	N	0.637929	0.821552	0.673174
1270	H	0.538541	0.817228	0.007016
1271	H	0.651264	0.811206	0.678058
1272	H	0.650536	0.844685	0.997748
1273	H	0.87604	0.708467	0.63937
1274	H	0.880174	0.677589	0.955203
1275	H	0.985506	0.789887	0.683703
1276	H	0.539009	0.725953	0.676332
1277	C	0.771646	0.749083	0.013666
1278	C	0.807407	0.765174	0.013549
1279	C	0.825894	0.749264	0.025837
1280	C	0.807754	0.714477	0.704497
1281	C	0.772251	0.695864	0.697414
1282	C	0.755559	0.713473	0.684653
1283	H	0.821164	0.789742	0.004333
1284	N	0.823904	0.698189	0.719549
1285	C	0.753698	0.767143	0.006249
1286	C	0.769861	0.802914	0.67315
1287	C	0.754071	0.821464	0.660616
1288	C	0.719372	0.80338	0.648203
1289	C	0.700605	0.767897	0.988722
1290	C	0.718109	0.75114	0.00169
1291	N	0.703292	0.819548	0.632443
1292	H	0.703739	0.726028	0.007097
1293	H	0.713438	0.84348	0.630655
1294	H	0.681907	0.807629	0.950664
1295	H	0.812023	0.676627	0.734206
1296	H	0.847829	0.708154	0.054155
1297	H	0.730445	0.699173	0.679195
1298	H	0.794388	0.816619	0.682584
1299	C	0.771847	0.526273	0.008403
1300	C	0.755636	0.545924	0.008193
1301	C	0.772677	0.581454	0.006212
1302	C	0.808455	0.599281	0.674449
1303	C	0.82624	0.581281	0.675114
1304	C	0.807687	0.545758	0.674334
1305	H	0.730203	0.534483	0.008962
1306	N	0.825677	0.633481	0.676179
1307	C	0.753741	0.989883	0.011818
1308	C	0.718152	0.97034	0.683326
1309	C	0.700514	0.935822	0.694874
1310	C	0.718984	0.918616	0.699986
1311	C	0.753752	0.935476	0.021342
1312	C	0.769725	0.970095	0.010259
1313	N	0.702683	0.885719	0.713059
1314	H	0.794401	0.981002	0.001809
1315	H	0.681209	0.875548	0.727995
1316	H	0.712289	0.871437	0.044784
1317	H	0.848909	0.646122	0.684473
1318	H	0.815258	0.646796	0.00512
1319	H	0.821597	0.534215	0.674999
1320	H	0.703858	0.981335	0.679832
1321	C	0.642545	0.745235	0.959101
1322	N	0.614643	0.747575	0.967191
1323	C	0.603469	0.750353	0.675619
1324	C	0.624217	0.752182	0.712347
1325	N	0.654538	0.75492	0.703463
1326	C	0.665189	0.751273	0.661769
1327	H	0.649889	0.746047	0.926196
1328	H	0.620516	0.758848	0.743969
1329	C	0.775208	0.908057	0.971615
1330	N	0.772625	0.877512	0.965861
1331	C	0.771491	0.856932	0.666633
1332	C	0.774322	0.869829	0.711017
1333	N	0.771699	0.897784	0.716638
1334	C	0.771482	0.9177	0.682485
1335	H	0.772066	0.919303	0.943629
1336	H	0.770369	0.855053	0.738827
1337	C	0.622076	0.877575	0.973219
1338	N	0.652824	0.904783	0.981428
1339	C	0.664955	0.91767	0.690023
1340	C	0.643492	0.900454	0.726866
1341	N	0.615439	0.87039	0.718745
1342	C	0.602799	0.857636	0.676919
1343	H	0.617167	0.868098	0.941003
1344	H	0.652086	0.905948	0.759462
1345	C	0.874404	0.770395	0.97535
1346	N	0.902439	0.76801	0.969128
1347	C	0.922235	0.767213	0.669656
1348	C	0.912498	0.770094	0.714206
1349	N	0.881868	0.767256	0.720275
1350	C	0.861354	0.766672	0.686434
1351	H	0.85977	0.767088	0.947581
1352	H	0.923607	0.766316	0.741836
1353	C	0.755849	0.619587	0.972473
1354	N	0.758682	0.649887	0.981829
1355	C	0.755579	0.660494	0.690498
1356	C	0.749669	0.637657	0.726265
1357	N	0.751992	0.6098	0.717683
1358	C	0.754411	0.598862	0.675616
1359	H	0.762051	0.615882	0.940552
1360	H	0.750877	0.644972	0.759258
1361	C	0.904745	0.639551	0.955386
1362	N	0.874667	0.611453	0.963243
1363	C	0.861831	0.598507	0.671572
1364	C	0.88183	0.617526	0.708778
1365	N	0.909076	0.648296	0.70079
1366	C	0.922153	0.660734	0.659011
1367	H	0.910317	0.648284	0.922855
1368	H	0.872295	0.612505	0.740957
